@<TRIPOS>MOLECULE
V19
   48    51     1     0     0
SMALL
No Charge or Current Charge


@<TRIPOS>ATOM
      1 O            8.4870    -2.5090    10.2640 o          1 V19      -0.521000
      2 C            8.0360    -3.0460     9.2570 c          1 V19       0.562600
      3 C1           7.0610    -2.3510     8.3450 ca         1 V19      -0.145600
      4 C13          6.5980    -1.0520     8.6460 ca         1 V19      -0.050000
      5 C12          5.6470    -0.4320     7.8220 ca         1 V19      -0.113000
      6 C11          5.1410    -1.1110     6.7050 ca         1 V19      -0.085000
      7 C10          5.5990    -2.4030     6.3980 ca         1 V19      -0.101000
      8 C2           6.5870    -3.0290     7.1950 ca         1 V19      -0.110900
      9 N1           8.3690    -4.3640     8.8710 n          1 V19      -0.145800
     10 N            7.9160    -5.0240     7.7330 nc         1 V19      -0.415300
     11 C3           7.0910    -4.3990     6.8910 cd         1 V19       0.419500
     12 C4           6.7240    -5.1160     5.6510 ca         1 V19      -0.099900
     13 C5           6.8890    -4.5040     4.3890 ca         1 V19      -0.087000
     14 C6           6.5840    -5.2060     3.2090 ca         1 V19      -0.088500
     15 C9           6.2980    -6.4610     5.7070 ca         1 V19      -0.087000
     16 C8           5.9920    -7.1630     4.5270 ca         1 V19      -0.088500
     17 C7           6.1300    -6.5320     3.2810 ca         1 V19      -0.011900
     18 Br           5.7180    -7.4880     1.6760 br         1 V19      -0.094100
     19 C14          9.3030    -5.1350     9.7140 c3         1 V19       0.342000
     20 O1          10.6510    -4.8870     9.2720 os         1 V19      -0.444000
     21 C15         11.6980    -5.5900     9.9680 c6         1 V19       0.238500
     22 C16         11.9350    -4.9380    11.3260 c2         1 V19      -0.375200
     23 C17         13.1640    -4.7350    11.8370 c2         1 V19       0.017100
     24 O2          14.3080    -5.1340    11.1890 os         1 V19      -0.323100
     25 C18         14.1880    -5.9900    10.0200 c6         1 V19       0.128300
     26 C20         15.5560    -6.0200     9.2700 c3         1 V19       0.167600
     27 O4          16.6430    -6.4740    10.0980 oh         1 V19      -0.645000
     28 C19         13.0000    -5.5550     9.1110 c6         1 V19       0.145300
     29 O3          13.1820    -4.2320     8.5600 oh         1 V19      -0.680000
     30 H13          6.9650    -0.5250     9.5250 ha         1 V19       0.142000
     31 H12          5.2890     0.5680     8.0600 ha         1 V19       0.122000
     32 H11          4.3870    -0.6390     6.0780 ha         1 V19       0.119000
     33 H10          5.1690    -2.9100     5.5380 ha         1 V19       0.127000
     34 H5           7.2620    -3.4840     4.3190 ha         1 V19       0.126000
     35 H6           6.7060    -4.7230     2.2420 ha         1 V19       0.132000
     36 H9           6.1940    -6.9620     6.6670 ha         1 V19       0.126000
     37 H8           5.6530    -8.1950     4.5810 ha         1 V19       0.132000
     38 H141         9.1520    -4.8370    10.7570 h2         1 V19       0.053700
     39 H142         9.0440    -6.1950     9.6160 h2         1 V19       0.053700
     40 H15         11.3970    -6.6380    10.1090 h1         1 V19       0.035700
     41 H16         11.0570    -4.6100    11.8810 ha         1 V19       0.205000
     42 H17         13.3420    -4.2460    12.7990 h4         1 V19       0.215000
     43 H18         13.9810    -7.0110    10.3740 h1         1 V19       0.060700
     44 H202        15.7710    -5.0110     8.8940 h1         1 V19       0.026700
     45 H201        15.4530    -6.6790     8.3970 h1         1 V19       0.026700
     46 HO4         17.4620    -6.4020     9.5600 ho         1 V19       0.445000
     47 H19         12.8930    -6.2850     8.2960 h1         1 V19       0.044700
     48 HO3         12.2810    -3.8330     8.6060 ho         1 V19       0.499000
@<TRIPOS>BOND
     1     1     2 2   
     2     2     3 1   
     3     2     9 1   
     4     3     4 ar  
     5     3     8 ar  
     6     4     5 ar  
     7     4    30 1   
     8     5     6 ar  
     9     5    31 1   
    10     6     7 ar  
    11     6    32 1   
    12     7     8 ar  
    13     7    33 1   
    14     8    11 1   
    15     9    10 1   
    16     9    19 1   
    17    10    11 2   
    18    11    12 1   
    19    12    13 ar  
    20    12    15 ar  
    21    13    14 ar  
    22    13    34 1   
    23    14    17 ar  
    24    14    35 1   
    25    15    16 ar  
    26    15    36 1   
    27    16    17 ar  
    28    16    37 1   
    29    17    18 1   
    30    19    20 1   
    31    19    38 1   
    32    19    39 1   
    33    20    21 1   
    34    21    22 1   
    35    21    28 1   
    36    21    40 1   
    37    22    23 2   
    38    22    41 1   
    39    23    24 1   
    40    23    42 1   
    41    24    25 1   
    42    25    26 1   
    43    25    28 1   
    44    25    43 1   
    45    26    27 1   
    46    26    44 1   
    47    26    45 1   
    48    27    46 1   
    49    28    29 1   
    50    28    47 1   
    51    29    48 1   
@<TRIPOS>SUBSTRUCTURE
     1 V19         1 TEMP              0 ****  ****    0 ROOT
