@<TRIPOS>MOLECULE
V19
   48    51     1     0     0
SMALL
abcg2


@<TRIPOS>ATOM
      1 O            8.7440    -2.8250    10.1090 o          1 V19      -0.521000
      2 C            8.2070    -3.2640     9.1070 c          1 V19       0.562600
      3 C1           7.2130    -2.5320     8.3250 ca         1 V19      -0.145600
      4 C13          6.7980    -1.2690     8.7500 ca         1 V19      -0.050000
      5 C12          5.8220    -0.5960     8.0460 ca         1 V19      -0.113000
      6 C11          5.2420    -1.1840     6.9200 ca         1 V19      -0.085000
      7 C10          5.6510    -2.4290     6.4890 ca         1 V19      -0.101000
      8 C2           6.6570    -3.1150     7.1800 ca         1 V19      -0.110900
      9 N1           8.4770    -4.5320     8.6440 n          1 V19      -0.145800
     10 N            7.9940    -5.0730     7.5150 nc         1 V19      -0.415300
     11 C3           7.1420    -4.4260     6.8030 cd         1 V19       0.419500
     12 C4           6.6560    -5.1210     5.5900 ca         1 V19      -0.099900
     13 C5           6.7240    -4.5130     4.3380 ca         1 V19      -0.087000
     14 C6           6.2680    -5.1680     3.2040 ca         1 V19      -0.088500
     15 C9           6.1390    -6.4090     5.6850 ca         1 V19      -0.087000
     16 C8           5.6750    -7.0750     4.5610 ca         1 V19      -0.088500
     17 C7           5.7380    -6.4430     3.3280 ca         1 V19      -0.011900
     18 BR           5.0810    -7.3270     1.7950 br         1 V19      -0.094100
     19 C14          9.4250    -5.3540     9.3540 c3         1 V19       0.342000
     20 O1          10.7180    -4.9450     9.0080 os         1 V19      -0.444000
     21 C15         11.7100    -5.4720     9.8660 c6         1 V19       0.238500
     22 C16         11.8230    -4.7030    11.1530 c2         1 V19      -0.375200
     23 C17         13.0050    -4.4670    11.7140 c2         1 V19       0.017100
     24 O2          14.1900    -4.9030    11.2460 os         1 V19      -0.323100
     25 C18         14.1270    -5.8310    10.1670 c6         1 V19       0.128300
     26 C20         15.5060    -5.9300     9.5560 c3         1 V19       0.167600
     27 O4          16.3970    -6.4340    10.5210 oh         1 V19      -0.645000
     28 C19         13.0560    -5.4240     9.1500 c6         1 V19       0.145300
     29 O3          13.2620    -4.1200     8.6680 oh         1 V19      -0.680000
     30 H13          7.2380    -0.8290     9.6340 ha         1 V19       0.142000
     31 H12          5.4970     0.3830     8.3720 ha         1 V19       0.122000
     32 H11          4.4630    -0.6620     6.3810 ha         1 V19       0.119000
     33 H10          5.1790    -2.8720     5.6230 ha         1 V19       0.127000
     34 H5           7.1470    -3.5220     4.2330 ha         1 V19       0.126000
     35 H6           6.3320    -4.6790     2.2410 ha         1 V19       0.132000
     36 H9           6.0800    -6.8980     6.6490 ha         1 V19       0.126000
     37 H8           5.2650    -8.0720     4.6580 ha         1 V19       0.132000
     38 H141         9.2350    -5.2590    10.4260 h2         1 V19       0.053700
     39 H142         9.2350    -6.3890     9.0590 h2         1 V19       0.053700
     40 H15         11.4890    -6.5300    10.0710 h1         1 V19       0.035700
     41 H16         10.9370    -4.3120    11.6360 ha         1 V19       0.205000
     42 H17         13.1160    -3.8880    12.6230 h4         1 V19       0.215000
     43 H18         13.8490    -6.8160    10.5690 h1         1 V19       0.060700
     44 H202        15.8180    -4.9430     9.1920 h1         1 V19       0.026700
     45 H201        15.4360    -6.5900     8.6810 h1         1 V19       0.026700
     46 HO4         17.2830    -6.4180    10.1480 ho         1 V19       0.445000
     47 H19         13.0560    -6.1600     8.3370 h1         1 V19       0.044700
     48 HO3         13.8520    -4.1570     7.9100 ho         1 V19       0.499000
@<TRIPOS>BOND
     1     1     2 2   
     2     2     3 1   
     3     2     9 1   
     4     3     4 ar  
     5     3     8 ar  
     6     4     5 ar  
     7     4    30 1   
     8     5     6 ar  
     9     5    31 1   
    10     6     7 ar  
    11     6    32 1   
    12     7     8 ar  
    13     7    33 1   
    14     8    11 1   
    15     9    10 1   
    16     9    19 1   
    17    10    11 2   
    18    11    12 1   
    19    12    13 ar  
    20    12    15 ar  
    21    13    14 ar  
    22    13    34 1   
    23    14    17 ar  
    24    14    35 1   
    25    15    16 ar  
    26    15    36 1   
    27    16    17 ar  
    28    16    37 1   
    29    17    18 1   
    30    19    20 1   
    31    19    38 1   
    32    19    39 1   
    33    20    21 1   
    34    21    22 1   
    35    21    28 1   
    36    21    40 1   
    37    22    23 2   
    38    22    41 1   
    39    23    24 1   
    40    23    42 1   
    41    24    25 1   
    42    25    26 1   
    43    25    28 1   
    44    25    43 1   
    45    26    27 1   
    46    26    44 1   
    47    26    45 1   
    48    27    46 1   
    49    28    29 1   
    50    28    47 1   
    51    29    48 1   
@<TRIPOS>SUBSTRUCTURE
     1 V19         1 TEMP              0 ****  ****    0 ROOT
