@<TRIPOS>MOLECULE
V1B
   43    47     1     0     0
SMALL
abcg2


@<TRIPOS>ATOM
      1 C4          11.3170    -0.0540    22.9700 cy         1 V1B      -0.029400
      2 C14          7.1510     0.6460    18.4070 ca         1 V1B       0.349900
      3 C5          12.3540    -0.5310    23.9400 ca         1 V1B      -0.072300
      4 C6          13.5800     0.1220    24.0410 ca         1 V1B      -0.102000
      5 C11          9.8870     0.2290    23.4800 cy         1 V1B      -0.072400
      6 C7          14.5540    -0.3150    24.9300 ca         1 V1B      -0.109000
      7 C8          14.3140    -1.4170    25.7370 ca         1 V1B      -0.105000
      8 C9          13.0940    -2.0770    25.6480 ca         1 V1B      -0.109000
      9 C10         12.1250    -1.6370    24.7580 ca         1 V1B      -0.102000
     10 C12          8.9430     0.5760    21.1290 c          1 V1B       0.577000
     11 C13          6.9440     0.9210    19.7300 ca         1 V1B      -0.075000
     12 N1           8.1610    -1.2470    22.2640 ns         1 V1B      -0.506900
     13 N2           7.6830     0.2330    20.7130 n          1 V1B      -0.223000
     14 C3          10.7140    -1.0680    21.9730 cy         1 V1B      -0.072400
     15 N3           6.4940     1.2670    17.4080 nb         1 V1B      -0.658000
     16 C1           7.1950    -0.8950    21.3990 c          1 V1B       0.623000
     17 C2           9.3290    -0.4230    22.1970 cy         1 V1B       0.001400
     18 O2           9.5990     1.4990    20.7170 o          1 V1B      -0.484000
     19 C15          5.6110     2.1740    17.7270 ca         1 V1B       0.372900
     20 C16          5.3050     2.5490    19.0550 ca         1 V1B      -0.096000
     21 C17          4.3420     3.5380    19.3510 ca         1 V1B      -0.079000
     22 C18          4.0840     3.8730    20.6510 ca         1 V1B      -0.109000
     23 C19          4.7800     3.2350    21.6980 ca         1 V1B      -0.087000
     24 C20          5.7180     2.2710    21.4400 ca         1 V1B      -0.096000
     25 C21          5.9990     1.9060    20.1060 ca         1 V1B       0.004000
     26 H1          11.6970     0.8140    22.4310 hc         1 V1B       0.081700
     27 H2           7.8760    -0.1080    18.1190 h4         1 V1B       0.027100
     28 H3          13.7760     0.9840    23.4130 ha         1 V1B       0.110000
     29 H4           9.6140     1.2650    23.6790 hc         1 V1B       0.068200
     30 H5           9.6290    -0.3780    24.3490 hc         1 V1B       0.068200
     31 H6          15.5000     0.2080    24.9900 ha         1 V1B       0.114000
     32 H7          15.0700    -1.7620    26.4300 ha         1 V1B       0.114000
     33 H8          12.8960    -2.9380    26.2740 ha         1 V1B       0.114000
     34 H9          11.1810    -2.1680    24.7060 ha         1 V1B       0.110000
     35 H10          8.0830    -2.0560    22.8610 hn         1 V1B       0.350500
     36 H11         10.7180    -2.0860    22.3660 hc         1 V1B       0.068200
     37 H12         11.1080    -1.0810    20.9570 hc         1 V1B       0.068200
     38 H13          5.0870     2.6630    16.9110 h4         1 V1B       0.021100
     39 H14          3.8170     4.0220    18.5370 ha         1 V1B       0.119000
     40 H15          3.3470     4.6300    20.8830 ha         1 V1B       0.118000
     41 H16          4.5690     3.5140    22.7220 ha         1 V1B       0.115000
     42 H17          6.2450     1.7980    22.2590 ha         1 V1B       0.120000
     43 O1           6.1140    -1.3980    21.2050 o          1 V1B      -0.525000
@<TRIPOS>BOND
     1     1     3 1   
     2     1     5 1   
     3     1    14 1   
     4     1    26 1   
     5     2    11 ar  
     6     2    15 ar  
     7     2    27 1   
     8     3     4 ar  
     9     3     9 ar  
    10     4     6 ar  
    11     4    28 1   
    12     5    17 1   
    13     5    29 1   
    14     5    30 1   
    15     6     7 ar  
    16     6    31 1   
    17     7     8 ar  
    18     7    32 1   
    19     8     9 ar  
    20     8    33 1   
    21     9    34 1   
    22    10    13 1   
    23    10    17 1   
    24    10    18 2   
    25    11    13 1   
    26    11    25 ar  
    27    12    16 1   
    28    12    17 1   
    29    12    35 1   
    30    13    16 1   
    31    14    17 1   
    32    14    36 1   
    33    14    37 1   
    34    15    19 ar  
    35    16    43 2   
    36    19    20 ar  
    37    19    38 1   
    38    20    21 ar  
    39    20    25 ar  
    40    21    22 ar  
    41    21    39 1   
    42    22    23 ar  
    43    22    40 1   
    44    23    24 ar  
    45    23    41 1   
    46    24    25 ar  
    47    24    42 1   
@<TRIPOS>SUBSTRUCTURE
     1 V1B         1 TEMP              0 ****  ****    0 ROOT
