@<TRIPOS>MOLECULE
V1B
   43    47     1     0     0
SMALL
No Charge or Current Charge


@<TRIPOS>ATOM
      1 C4          11.3790    -0.0320    22.8420 cy         1 V1B      -0.029400
      2 C14          7.5060     0.9090    18.5510 ca         1 V1B       0.349900
      3 C5          12.4130    -0.5700    23.8340 ca         1 V1B      -0.072300
      4 C6          13.7160    -0.0310    23.8500 ca         1 V1B      -0.102000
      5 C11          9.9880     0.4120    23.4590 cy         1 V1B      -0.072400
      6 C7          14.6760    -0.5150    24.7550 ca         1 V1B      -0.109000
      7 C8          14.3420    -1.5420    25.6540 ca         1 V1B      -0.105000
      8 C9          13.0460    -2.0840    25.6460 ca         1 V1B      -0.109000
      9 C10         12.0850    -1.6010    24.7410 ca         1 V1B      -0.102000
     10 C12          9.0740     0.5370    21.2720 c          1 V1B       0.577000
     11 C13          7.0560     1.0480    19.8820 ca         1 V1B      -0.075000
     12 N1           8.0190    -1.1860    22.5650 ns         1 V1B      -0.506900
     13 N2           7.7250     0.3230    20.9340 n          1 V1B      -0.223000
     14 C3          10.6370    -1.1160    21.9540 cy         1 V1B      -0.072400
     15 N3           6.9330     1.5300    17.4950 nb         1 V1B      -0.658000
     16 C1           7.1060    -0.6990    21.6770 c          1 V1B       0.623000
     17 C2           9.2710    -0.5300    22.4380 cy         1 V1B       0.001400
     18 O2           9.7560     1.3810    20.6960 o          1 V1B      -0.484000
     19 C15          5.8730     2.3330    17.7420 ca         1 V1B       0.372900
     20 C16          5.3560     2.5530    19.0340 ca         1 V1B      -0.096000
     21 C17          4.2580     3.4140    19.2280 ca         1 V1B      -0.079000
     22 C18          3.7620     3.6370    20.5230 ca         1 V1B      -0.109000
     23 C19          4.3640     3.0070    21.6240 ca         1 V1B      -0.087000
     24 C20          5.4590     2.1450    21.4350 ca         1 V1B      -0.096000
     25 C21          5.9560     1.9040    20.1350 ca         1 V1B       0.004000
     26 H1          11.8120     0.7620    22.2220 hc         1 V1B       0.081700
     27 H2           8.3520     0.2620    18.3210 h4         1 V1B       0.027100
     28 H3          13.9880     0.7640    23.1590 ha         1 V1B       0.110000
     29 H4           9.7630     1.4850    23.4120 hc         1 V1B       0.068200
     30 H5           9.8450     0.1040    24.5000 hc         1 V1B       0.068200
     31 H6          15.6790    -0.0940    24.7600 ha         1 V1B       0.114000
     32 H7          15.0850    -1.9160    26.3550 ha         1 V1B       0.114000
     33 H8          12.7850    -2.8790    26.3420 ha         1 V1B       0.114000
     34 H9          11.0870    -2.0310    24.7470 ha         1 V1B       0.110000
     35 H10          7.7970    -1.9500    23.1950 hn         1 V1B       0.350500
     36 H11         10.8020    -2.1470    22.2840 hc         1 V1B       0.068200
     37 H12         10.8560    -1.0880    20.8800 hc         1 V1B       0.068200
     38 H13          5.4300     2.8220    16.8750 h4         1 V1B       0.021100
     39 H14          3.7930     3.9120    18.3800 ha         1 V1B       0.119000
     40 H15          2.9160     4.3040    20.6740 ha         1 V1B       0.118000
     41 H16          3.9830     3.1870    22.6280 ha         1 V1B       0.115000
     42 H17          5.9120     1.6790    22.3050 ha         1 V1B       0.120000
     43 O1           5.9620    -1.1040    21.5540 o          1 V1B      -0.525000
@<TRIPOS>BOND
     1     1     3 1   
     2     1     5 1   
     3     1    14 1   
     4     1    26 1   
     5     2    11 ar  
     6     2    15 ar  
     7     2    27 1   
     8     3     4 ar  
     9     3     9 ar  
    10     4     6 ar  
    11     4    28 1   
    12     5    17 1   
    13     5    29 1   
    14     5    30 1   
    15     6     7 ar  
    16     6    31 1   
    17     7     8 ar  
    18     7    32 1   
    19     8     9 ar  
    20     8    33 1   
    21     9    34 1   
    22    10    13 1   
    23    10    17 1   
    24    10    18 2   
    25    11    13 1   
    26    11    25 ar  
    27    12    16 1   
    28    12    17 1   
    29    12    35 1   
    30    13    16 1   
    31    14    17 1   
    32    14    36 1   
    33    14    37 1   
    34    15    19 ar  
    35    16    43 2   
    36    19    20 ar  
    37    19    38 1   
    38    20    21 ar  
    39    20    25 ar  
    40    21    22 ar  
    41    21    39 1   
    42    22    23 ar  
    43    22    40 1   
    44    23    24 ar  
    45    23    41 1   
    46    24    25 ar  
    47    24    42 1   
@<TRIPOS>SUBSTRUCTURE
     1 V1B         1 TEMP              0 ****  ****    0 ROOT
