@<TRIPOS>MOLECULE
V1E
   26    26     1     0     0
SMALL
No Charge or Current Charge


@<TRIPOS>ATOM
      1 C01        -18.0880   -21.1770    -2.0040 c3         1 V1E       0.166600
      2 C05        -17.0780   -20.9860     1.0500 ca         1 V1E      -0.313500
      3 C06        -16.9710   -22.0330     1.9890 ca         1 V1E      -0.012000
      4 C07        -17.8340   -22.0730     3.0980 ca         1 V1E      -0.134500
      5 C08        -18.8030   -21.0710     3.2850 ca         1 V1E      -0.019300
      6 C09        -18.9040   -20.0260     2.3490 ca         1 V1E      -0.134500
      7 C10        -18.0460   -19.9780     1.2380 ca         1 V1E      -0.012000
      8 C11        -19.7370   -21.1210     4.4840 c3         1 V1E      -0.057800
      9 C13        -17.0070   -23.2430    -1.2500 c3         1 V1E       0.166600
     10 N02        -16.8250   -21.8110    -1.5680 n3         1 V1E      -0.697500
     11 O04        -15.8810   -19.5520    -0.8750 o          1 V1E      -0.534000
     12 O12        -14.7570   -21.7000    -0.0900 o          1 V1E      -0.534000
     13 S03        -15.9730   -20.9290    -0.3760 sy         1 V1E       1.146600
     14 H1         -17.9220   -20.1480    -2.3500 h1         1 V1E       0.052700
     15 H2         -18.5310   -21.7350    -2.8410 h1         1 V1E       0.052700
     16 H3         -18.8250   -21.1540    -1.1900 h1         1 V1E       0.052700
     17 H4         -16.2260   -22.8170     1.8630 ha         1 V1E       0.134500
     18 H5         -17.7460   -22.8880     3.8130 ha         1 V1E       0.117000
     19 H6         -19.6510   -19.2460     2.4830 ha         1 V1E       0.117000
     20 H7         -18.1390   -19.1590     0.5260 ha         1 V1E       0.134500
     21 H8         -20.6470   -21.6850     4.2470 hc         1 V1E       0.049367
     22 H9         -19.2580   -21.6050     5.3440 hc         1 V1E       0.049367
     23 H10        -20.0380   -20.1150     4.7990 hc         1 V1E       0.049367
     24 H11        -16.0460   -23.7320    -1.0410 h1         1 V1E       0.052700
     25 H12        -17.6610   -23.3790    -0.3780 h1         1 V1E       0.052700
     26 H13        -17.4650   -23.7710    -2.0970 h1         1 V1E       0.052700
@<TRIPOS>BOND
     1     1    10 1   
     2     1    14 1   
     3     1    15 1   
     4     1    16 1   
     5     2     3 ar  
     6     2     7 ar  
     7     2    13 1   
     8     3     4 ar  
     9     3    17 1   
    10     4     5 ar  
    11     4    18 1   
    12     5     6 ar  
    13     5     8 1   
    14     6     7 ar  
    15     6    19 1   
    16     7    20 1   
    17     8    21 1   
    18     8    22 1   
    19     8    23 1   
    20     9    10 1   
    21     9    24 1   
    22     9    25 1   
    23     9    26 1   
    24    10    13 1   
    25    11    13 2   
    26    12    13 2   
@<TRIPOS>SUBSTRUCTURE
     1 V1E         1 TEMP              0 ****  ****    0 ROOT
