@<TRIPOS>MOLECULE
V1E
   26    26     1     0     0
SMALL
bcc


@<TRIPOS>ATOM
      1 C01        -18.0890   -21.1800    -2.0280 c3         1 V1E       0.166600
      2 C05        -17.0680   -20.9710     1.0940 ca         1 V1E      -0.313500
      3 C06        -16.9380   -21.9960     2.0240 ca         1 V1E      -0.030000
      4 C07        -17.7880   -22.0300     3.1170 ca         1 V1E      -0.152500
      5 C08        -18.7700   -21.0580     3.2990 ca         1 V1E      -0.019300
      6 C09        -18.8720   -20.0330     2.3590 ca         1 V1E      -0.152500
      7 C10        -18.0300   -19.9810     1.2600 ca         1 V1E      -0.030000
      8 C11        -19.7120   -21.1280     4.4620 c3         1 V1E      -0.057800
      9 C13        -17.0570   -23.2430    -1.2460 c3         1 V1E       0.166600
     10 N02        -16.8870   -21.8180    -1.5050 n3         1 V1E      -0.697500
     11 O04        -15.9420   -19.6010    -0.8330 o          1 V1E      -0.604800
     12 O12        -14.8440   -21.7240    -0.0620 o          1 V1E      -0.604800
     13 S03        -16.0510   -20.9680    -0.3520 sy         1 V1E       1.288200
     14 H1         -17.8930   -20.1480    -2.3050 h1         1 V1E       0.052700
     15 H2         -18.3850   -21.7160    -2.9280 h1         1 V1E       0.052700
     16 H3         -18.9260   -21.2100    -1.3220 h1         1 V1E       0.052700
     17 H4         -16.1780   -22.7570     1.9090 ha         1 V1E       0.152500
     18 H5         -17.6800   -22.8260     3.8430 ha         1 V1E       0.135000
     19 H6         -19.6190   -19.2600     2.4900 ha         1 V1E       0.135000
     20 H7         -18.1250   -19.1710     0.5500 ha         1 V1E       0.152500
     21 H8         -20.6060   -21.6950     4.1940 hc         1 V1E       0.049367
     22 H9         -19.2560   -21.6250     5.3170 hc         1 V1E       0.049367
     23 H10        -20.0380   -20.1370     4.7730 hc         1 V1E       0.049367
     24 H11        -16.1160   -23.6990    -0.9500 h1         1 V1E       0.052700
     25 H12        -17.8120   -23.4440    -0.4790 h1         1 V1E       0.052700
     26 H13        -17.3780   -23.7150    -2.1720 h1         1 V1E       0.052700
@<TRIPOS>BOND
     1     1    10 1   
     2     1    14 1   
     3     1    15 1   
     4     1    16 1   
     5     2     3 ar  
     6     2     7 ar  
     7     2    13 1   
     8     3     4 ar  
     9     3    17 1   
    10     4     5 ar  
    11     4    18 1   
    12     5     6 ar  
    13     5     8 1   
    14     6     7 ar  
    15     6    19 1   
    16     7    20 1   
    17     8    21 1   
    18     8    22 1   
    19     8    23 1   
    20     9    10 1   
    21     9    24 1   
    22     9    25 1   
    23     9    26 1   
    24    10    13 1   
    25    11    13 2   
    26    12    13 2   
@<TRIPOS>SUBSTRUCTURE
     1 V1E         1 TEMP              0 ****  ****    0 ROOT
