@<TRIPOS>MOLECULE
V1G
   66    70     1     0     0
SMALL
abcg2


@<TRIPOS>ATOM
      1 C4         -40.8950   -25.0160    -3.8030 c3         1 V1G      -0.084767
      2 C14        -40.9800   -28.5540    -0.6420 ca         1 V1G       0.239000
      3 C5         -41.5320   -26.6810    -2.0590 ca         1 V1G      -0.006300
      4 C6         -41.4090   -25.8520    -0.9500 ca         1 V1G      -0.124000
      5 C11        -40.5140   -28.2460     1.8100 c          1 V1G       0.581600
      6 C7         -41.0720   -26.3680     0.2970 ca         1 V1G      -0.097900
      7 C8         -40.9340   -25.5170     1.4460 cc         1 V1G       0.355800
      8 C13        -40.8520   -27.7420     0.4810 ca         1 V1G      -0.191600
      9 C3         -41.9490   -27.1500    -4.5130 c3         1 V1G      -0.084767
     10 C1         -43.3120   -25.4660    -3.2910 c3         1 V1G      -0.084767
     11 C15        -41.3070   -28.0480    -1.8810 ca         1 V1G      -0.169000
     12 C17        -40.0440   -27.6510     4.0960 ca         1 V1G       0.493900
     13 C18        -38.7010   -27.6830     4.4630 ca         1 V1G      -0.105300
     14 C19        -38.4170   -28.1230     5.7630 ca         1 V1G       0.032200
     15 C2         -41.9160   -26.0920    -3.4100 c3         1 V1G      -0.006700
     16 C20        -39.4920   -28.4200     6.6010 ca         1 V1G      -0.153000
     17 C21        -40.7830   -28.3070     6.1240 ca         1 V1G       0.357900
     18 C23        -37.0480   -28.2840     6.2830 cc         1 V1G      -0.125200
     19 C24        -36.7190   -27.8200     7.5840 cc         1 V1G      -0.132000
     20 C25        -35.4700   -28.0220     8.0880 cd         1 V1G      -0.058600
     21 C26        -34.4560   -28.7120     7.3060 c          1 V1G       0.532200
     22 C29        -36.0950   -28.9380     5.5670 cd         1 V1G      -0.041400
     23 C32        -35.6970   -27.0910    10.3650 c          1 V1G       0.643100
     24 C34        -34.8490   -26.7940    11.5520 cx         1 V1G      -0.269700
     25 C36        -35.5280   -26.6330    12.8950 cx         1 V1G      -0.117400
     26 C37        -34.9700   -25.4530    12.2180 cx         1 V1G       0.177300
     27 C40        -37.6420   -27.2450     3.4920 c3         1 V1G       0.205900
     28 F16        -40.7820   -29.8680    -0.5430 f          1 V1G      -0.147000
     29 F39        -35.8280   -24.5370    11.6790 f          1 V1G      -0.217000
     30 N10        -40.3910   -27.2590     2.7660 n          1 V1G      -0.170300
     31 N22        -41.0600   -27.9410     4.8780 nb         1 V1G      -0.654000
     32 N28        -34.8500   -29.1410     6.0620 n          1 V1G      -0.252000
     33 N31        -34.9960   -27.6170     9.3280 ns         1 V1G      -0.397100
     34 N9         -40.6110   -25.9430     2.6090 nd         1 V1G      -0.396300
     35 O12        -40.3550   -29.4140     2.1110 o          1 V1G      -0.491000
     36 O27        -33.3140   -28.9070     7.7170 o          1 V1G      -0.580000
     37 O33        -36.8950   -26.8790    10.3280 o          1 V1G      -0.578100
     38 O41        -37.3280   -28.3280     2.6430 oh         1 V1G      -0.653000
     39 H1         -40.8530   -24.1990    -3.0810 hc         1 V1G       0.039033
     40 H2         -39.8920   -25.4380    -3.8900 hc         1 V1G       0.039033
     41 H3         -41.1620   -24.5850    -4.7690 hc         1 V1G       0.039033
     42 H4         -41.5750   -24.7860    -1.0390 ha         1 V1G       0.124000
     43 H5         -41.1000   -24.4510     1.3560 h4         1 V1G       0.045800
     44 H6         -42.6860   -27.9300    -4.3130 hc         1 V1G       0.039033
     45 H7         -42.2230   -26.6800    -5.4580 hc         1 V1G       0.039033
     46 H8         -40.9760   -27.6240    -4.6560 hc         1 V1G       0.039033
     47 H9         -43.3410   -24.6610    -2.5560 hc         1 V1G       0.039033
     48 H10        -43.6170   -25.0470    -4.2510 hc         1 V1G       0.039033
     49 H11        -44.0530   -26.2130    -3.0010 hc         1 V1G       0.039033
     50 H12        -41.3840   -28.7440    -2.7050 ha         1 V1G       0.139000
     51 H13        -39.3250   -28.7640     7.6130 ha         1 V1G       0.136000
     52 H14        -41.6260   -28.5360     6.7640 h4         1 V1G       0.028100
     53 H15        -37.4620   -27.2870     8.1560 ha         1 V1G       0.227000
     54 H17        -36.2850   -29.3390     4.5820 h4         1 V1G       0.229000
     55 H18        -33.5460   -30.7650     5.7810 h1         1 V1G       0.058367
     56 H19        -34.3090   -30.1340     4.3160 h1         1 V1G       0.058367
     57 H20        -32.9920   -29.2350     5.0820 h1         1 V1G       0.058367
     58 H35        -33.8520   -27.2180    11.5450 hc         1 V1G       0.097700
     59 H21        -36.6050   -26.7480    12.9030 hc         1 V1G       0.097200
     60 H22        -35.0160   -27.0180    13.7650 hc         1 V1G       0.097200
     61 H38        -34.0620   -24.9890    12.5820 h1         1 V1G       0.090700
     62 H23        -36.7660   -26.8990     4.0500 h1         1 V1G       0.034700
     63 H24        -38.0030   -26.3840     2.9210 h1         1 V1G       0.034700
     64 H25        -36.6640   -28.0260     2.0140 ho         1 V1G       0.442000
     65 H16        -34.0110   -27.7970     9.4670 hn         1 V1G       0.344500
     66 C30        -33.8620   -29.8600     5.2660 c3         1 V1G       0.076300
@<TRIPOS>BOND
     1     1    15 1   
     2     1    39 1   
     3     1    40 1   
     4     1    41 1   
     5     2     8 ar  
     6     2    11 ar  
     7     2    28 1   
     8     3     4 ar  
     9     3    11 ar  
    10     3    15 1   
    11     4     6 ar  
    12     4    42 1   
    13     5     8 1   
    14     5    30 1   
    15     5    35 2   
    16     6     7 1   
    17     6     8 ar  
    18     7    34 2   
    19     7    43 1   
    20     9    15 1   
    21     9    44 1   
    22     9    45 1   
    23     9    46 1   
    24    10    15 1   
    25    10    47 1   
    26    10    48 1   
    27    10    49 1   
    28    11    50 1   
    29    12    13 ar  
    30    12    30 1   
    31    12    31 ar  
    32    13    14 ar  
    33    13    27 1   
    34    14    16 ar  
    35    14    18 1   
    36    16    17 ar  
    37    16    51 1   
    38    17    31 ar  
    39    17    52 1   
    40    18    19 1   
    41    18    22 2   
    42    19    20 2   
    43    19    53 1   
    44    20    21 1   
    45    20    33 1   
    46    21    32 1   
    47    21    36 2   
    48    22    32 1   
    49    22    54 1   
    50    23    24 1   
    51    23    33 1   
    52    23    37 2   
    53    24    25 1   
    54    24    26 1   
    55    24    58 1   
    56    25    26 1   
    57    25    59 1   
    58    25    60 1   
    59    26    29 1   
    60    26    61 1   
    61    27    38 1   
    62    27    62 1   
    63    27    63 1   
    64    30    34 1   
    65    32    66 1   
    66    33    65 1   
    67    38    64 1   
    68    55    66 1   
    69    56    66 1   
    70    57    66 1   
@<TRIPOS>SUBSTRUCTURE
     1 V1G         1 TEMP              0 ****  ****    0 ROOT
