@<TRIPOS>MOLECULE
V1G
   66    70     1     0     0
SMALL
No Charge or Current Charge


@<TRIPOS>ATOM
      1 C4         -40.9740   -24.9950    -3.9150 c3         1 V1G      -0.084767
      2 C14        -40.9540   -28.6500    -0.7970 ca         1 V1G       0.239000
      3 C5         -41.6020   -26.7290    -2.1790 ca         1 V1G      -0.006300
      4 C6         -41.5020   -25.9190    -1.0250 ca         1 V1G      -0.124000
      5 C11        -40.4750   -28.3470     1.6970 c          1 V1G       0.581600
      6 C7         -41.1360   -26.4560     0.2250 ca         1 V1G      -0.097900
      7 C8         -41.0450   -25.5760     1.3950 cc         1 V1G       0.355800
      8 C13        -40.8600   -27.8280     0.3440 ca         1 V1G      -0.191600
      9 C3         -42.0730   -27.1140    -4.6990 c3         1 V1G      -0.084767
     10 C1         -43.4140   -25.4400    -3.3910 c3         1 V1G      -0.084767
     11 C15        -41.3200   -28.1080    -2.0380 ca         1 V1G      -0.169000
     12 C17        -40.0440   -27.7670     4.0410 ca         1 V1G       0.493900
     13 C18        -38.6960   -27.7320     4.4810 ca         1 V1G      -0.105300
     14 C19        -38.4150   -28.1350     5.8180 ca         1 V1G       0.032200
     15 C2         -42.0100   -26.0870    -3.5330 c3         1 V1G      -0.006700
     16 C20        -39.5130   -28.4920     6.6260 ca         1 V1G      -0.153000
     17 C21        -40.8090   -28.4860     6.0990 ca         1 V1G       0.357900
     18 C23        -37.0650   -28.1860     6.4110 cc         1 V1G      -0.125200
     19 C24        -36.7970   -27.9000     7.7950 cc         1 V1G      -0.132000
     20 C25        -35.5290   -28.0880     8.3210 cd         1 V1G      -0.058600
     21 C26        -34.4230   -28.6280     7.4650 c          1 V1G       0.532200
     22 C29        -36.0670   -28.7630     5.6480 cd         1 V1G      -0.041400
     23 C32        -35.9640   -27.3090    10.7050 c          1 V1G       0.643100
     24 C34        -35.1760   -27.1490    11.9760 cx         1 V1G      -0.269700
     25 C36        -35.4450   -25.9520    12.8690 cx         1 V1G      -0.117400
     26 C37        -34.1750   -26.0200    12.0600 cx         1 V1G       0.177300
     27 C40        -37.6300   -27.1420     3.5520 c3         1 V1G       0.205900
     28 F16        -40.6970   -29.9760    -0.7320 f          1 V1G      -0.147000
     29 F39        -34.0320   -25.1770    10.9990 f          1 V1G      -0.217000
     30 N10        -40.4170   -27.3690     2.7170 n          1 V1G      -0.170300
     31 N22        -41.0800   -28.1370     4.8290 nb         1 V1G      -0.654000
     32 N28        -34.7740   -28.9500     6.1340 n          1 V1G      -0.252000
     33 N31        -35.2060   -27.7910     9.6540 ns         1 V1G      -0.397100
     34 N9         -40.6950   -25.9880     2.6170 nd         1 V1G      -0.396300
     35 O12        -40.2330   -29.5270     1.9180 o          1 V1G      -0.491000
     36 O27        -33.2850   -28.7920     7.8960 o          1 V1G      -0.580000
     37 O33        -37.1580   -27.0530    10.6500 o          1 V1G      -0.578100
     38 O41        -37.2150   -28.1030     2.5760 oh         1 V1G      -0.653000
     39 H1         -40.9470   -24.1860    -3.1770 hc         1 V1G       0.039033
     40 H2         -39.9670   -25.4240    -3.9830 hc         1 V1G       0.039033
     41 H3         -41.2170   -24.5470    -4.8870 hc         1 V1G       0.039033
     42 H4         -41.7110   -24.8540    -1.0910 ha         1 V1G       0.124000
     43 H5         -41.2470   -24.5140     1.3760 h4         1 V1G       0.045800
     44 H6         -42.8120   -27.8990    -4.4960 hc         1 V1G       0.039033
     45 H7         -42.3640   -26.6240    -5.6360 hc         1 V1G       0.039033
     46 H8         -41.0970   -27.5860    -4.8650 hc         1 V1G       0.039033
     47 H9         -43.4170   -24.6360    -2.6470 hc         1 V1G       0.039033
     48 H10        -43.7450   -25.0080    -4.3440 hc         1 V1G       0.039033
     49 H11        -44.1550   -26.1880    -3.0840 hc         1 V1G       0.039033
     50 H12        -41.3760   -28.7890    -2.8810 ha         1 V1G       0.139000
     51 H13        -39.3730   -28.8130     7.6530 ha         1 V1G       0.136000
     52 H14        -41.6590   -28.7790     6.7140 h4         1 V1G       0.028100
     53 H15        -37.6130   -27.5070     8.3880 ha         1 V1G       0.227000
     54 H17        -36.2080   -29.1390     4.6400 h4         1 V1G       0.229000
     55 H18        -33.3980   -30.4890     5.6560 h1         1 V1G       0.058367
     56 H19        -34.1080   -29.6700     4.2380 h1         1 V1G       0.058367
     57 H20        -32.8680   -28.8400     5.2120 h1         1 V1G       0.058367
     58 H35        -34.9120   -28.0780    12.4720 hc         1 V1G       0.097700
     59 H21        -36.1980   -25.2300    12.5600 hc         1 V1G       0.097200
     60 H22        -35.3610   -26.0870    13.9450 hc         1 V1G       0.097200
     61 H38        -33.2300   -26.1890    12.5790 h1         1 V1G       0.090700
     62 H23        -36.7710   -26.7890     4.1360 h1         1 V1G       0.034700
     63 H24        -38.0350   -26.2520     3.0530 h1         1 V1G       0.034700
     64 H25        -36.5760   -27.6500     1.9820 ho         1 V1G       0.442000
     65 H16        -34.2420   -27.9480     9.9280 hn         1 V1G       0.344500
     66 C30        -33.7270   -29.5220     5.2560 c3         1 V1G       0.076300
@<TRIPOS>BOND
     1     1    15 1   
     2     1    39 1   
     3     1    40 1   
     4     1    41 1   
     5     2     8 ar  
     6     2    11 ar  
     7     2    28 1   
     8     3     4 ar  
     9     3    11 ar  
    10     3    15 1   
    11     4     6 ar  
    12     4    42 1   
    13     5     8 1   
    14     5    30 1   
    15     5    35 2   
    16     6     7 1   
    17     6     8 ar  
    18     7    34 2   
    19     7    43 1   
    20     9    15 1   
    21     9    44 1   
    22     9    45 1   
    23     9    46 1   
    24    10    15 1   
    25    10    47 1   
    26    10    48 1   
    27    10    49 1   
    28    11    50 1   
    29    12    13 ar  
    30    12    30 1   
    31    12    31 ar  
    32    13    14 ar  
    33    13    27 1   
    34    14    16 ar  
    35    14    18 1   
    36    16    17 ar  
    37    16    51 1   
    38    17    31 ar  
    39    17    52 1   
    40    18    19 1   
    41    18    22 2   
    42    19    20 2   
    43    19    53 1   
    44    20    21 1   
    45    20    33 1   
    46    21    32 1   
    47    21    36 2   
    48    22    32 1   
    49    22    54 1   
    50    23    24 1   
    51    23    33 1   
    52    23    37 2   
    53    24    25 1   
    54    24    26 1   
    55    24    58 1   
    56    25    26 1   
    57    25    59 1   
    58    25    60 1   
    59    26    29 1   
    60    26    61 1   
    61    27    38 1   
    62    27    62 1   
    63    27    63 1   
    64    30    34 1   
    65    32    66 1   
    66    33    65 1   
    67    38    64 1   
    68    55    66 1   
    69    56    66 1   
    70    57    66 1   
@<TRIPOS>SUBSTRUCTURE
     1 V1G         1 TEMP              0 ****  ****    0 ROOT
