@<TRIPOS>MOLECULE
V1H
   31    32     1     0     0
SMALL
abcg2


@<TRIPOS>ATOM
      1 C01        -21.5630    25.0540    -1.9640 c3         1 V1H       0.143900
      2 C03        -22.8390    23.1460    -2.3410 cy         1 V1H       0.140300
      3 C04        -24.1050    23.3280    -1.4740 cy         1 V1H       0.176300
      4 C08        -24.0940    20.9890     0.8970 ca         1 V1H      -0.317500
      5 C09        -23.0870    20.0440     1.0470 ca         1 V1H      -0.012000
      6 C10        -22.2490    20.1170     2.1480 ca         1 V1H      -0.133500
      7 C11        -22.3990    21.1200     3.1040 ca         1 V1H      -0.017300
      8 C12        -23.4280    22.0470     2.9390 ca         1 V1H      -0.133500
      9 C13        -24.2750    21.9900     1.8450 ca         1 V1H      -0.012000
     10 C14        -21.4590    21.2170     4.2660 c3         1 V1H      -0.058800
     11 C16        -22.9950    21.6330    -2.1500 cy         1 V1H       0.176300
     12 N05        -24.3650    21.8930    -1.6740 nq         1 V1H      -0.712500
     13 O02        -21.6430    23.6510    -1.8570 os         1 V1H      -0.441000
     14 O07        -25.1130    19.6070    -1.0760 o          1 V1H      -0.532000
     15 O15        -26.3640    21.6350    -0.2370 o          1 V1H      -0.532000
     16 S06        -25.1140    20.9600    -0.5460 sy         1 V1H       1.151600
     17 H1         -20.5860    25.3610    -1.5940 h1         1 V1H       0.034700
     18 H2         -21.6650    25.3900    -3.0020 h1         1 V1H       0.034700
     19 H3         -22.3310    25.5580    -1.3670 h1         1 V1H       0.034700
     20 H4         -23.0190    23.4540    -3.3780 h1         1 V1H       0.063700
     21 H5         -23.8540    23.5930    -0.4410 h1         1 V1H       0.072950
     22 H6         -24.8960    23.9780    -1.8430 h1         1 V1H       0.072950
     23 H7         -22.9560    19.2500     0.3240 ha         1 V1H       0.134500
     24 H8         -21.4660    19.3780     2.2670 ha         1 V1H       0.117500
     25 H9         -23.5730    22.8240     3.6790 ha         1 V1H       0.117500
     26 H10        -25.0720    22.7140     1.7440 ha         1 V1H       0.134500
     27 H11        -20.6050    21.8480     4.0120 hc         1 V1H       0.049700
     28 H12        -21.9430    21.6600     5.1360 hc         1 V1H       0.049700
     29 H13        -21.0690    20.2400     4.5490 hc         1 V1H       0.049700
     30 H14        -22.9400    20.9970    -3.0310 h1         1 V1H       0.072950
     31 H15        -22.3220    21.2550    -1.3740 h1         1 V1H       0.072950
@<TRIPOS>BOND
     1     1    13 1   
     2     1    17 1   
     3     1    18 1   
     4     1    19 1   
     5     2     3 1   
     6     2    11 1   
     7     2    13 1   
     8     2    20 1   
     9     3    12 1   
    10     3    21 1   
    11     3    22 1   
    12     4     5 ar  
    13     4     9 ar  
    14     4    16 1   
    15     5     6 ar  
    16     5    23 1   
    17     6     7 ar  
    18     6    24 1   
    19     7     8 ar  
    20     7    10 1   
    21     8     9 ar  
    22     8    25 1   
    23     9    26 1   
    24    10    27 1   
    25    10    28 1   
    26    10    29 1   
    27    11    12 1   
    28    11    30 1   
    29    11    31 1   
    30    12    16 1   
    31    14    16 2   
    32    15    16 2   
@<TRIPOS>SUBSTRUCTURE
     1 V1H         1 TEMP              0 ****  ****    0 ROOT
