@<TRIPOS>MOLECULE
V1H
   31    32     1     0     0
SMALL
No Charge or Current Charge


@<TRIPOS>ATOM
      1 C01        -21.2560    24.9660    -2.8460 c3         1 V1H       0.143900
      2 C03        -23.1890    23.5030    -2.4940 cy         1 V1H       0.140300
      3 C04        -22.8350    22.7500    -1.1640 cy         1 V1H       0.176300
      4 C08        -23.8940    20.8360     1.0210 ca         1 V1H      -0.317500
      5 C09        -22.6560    20.2520     1.3600 ca         1 V1H      -0.012000
      6 C10        -22.1080    20.4610     2.6380 ca         1 V1H      -0.133500
      7 C11        -22.7860    21.2500     3.5850 ca         1 V1H      -0.017300
      8 C12        -24.0180    21.8360     3.2400 ca         1 V1H      -0.133500
      9 C13        -24.5720    21.6320     1.9650 ca         1 V1H      -0.012000
     10 C14        -22.1870    21.4770     4.9640 c3         1 V1H      -0.058800
     11 C16        -23.9150    22.1670    -2.8700 cy         1 V1H       0.176300
     12 N05        -24.1090    22.0140    -1.4010 nq         1 V1H      -0.712500
     13 O02        -22.0950    23.9080    -3.3390 os         1 V1H      -0.441000
     14 O07        -23.9030    19.4850    -1.2870 o          1 V1H      -0.532000
     15 O15        -26.0600    20.6620    -0.5220 o          1 V1H      -0.532000
     16 S06        -24.5980    20.5930    -0.6210 sy         1 V1H       1.151600
     17 H1         -20.4700    25.2000    -3.5750 h1         1 V1H       0.034700
     18 H2         -21.8420    25.8780    -2.6710 h1         1 V1H       0.034700
     19 H3         -20.7730    24.6780    -1.9040 h1         1 V1H       0.034700
     20 H4         -23.8840    24.3370    -2.3430 h1         1 V1H       0.063700
     21 H5         -21.9270    22.1380    -1.2330 h1         1 V1H       0.072950
     22 H6         -22.8010    23.3810    -0.2690 h1         1 V1H       0.072950
     23 H7         -22.1130    19.6410     0.6400 ha         1 V1H       0.134500
     24 H8         -21.1520    20.0080     2.8900 ha         1 V1H       0.117500
     25 H9         -24.5480    22.4540     3.9610 ha         1 V1H       0.117500
     26 H10        -25.5240    22.0990     1.7130 ha         1 V1H       0.134500
     27 H11        -21.5460    22.3660     4.9690 hc         1 V1H       0.049700
     28 H12        -22.9680    21.6220     5.7200 hc         1 V1H       0.049700
     29 H13        -21.5790    20.6220     5.2810 hc         1 V1H       0.049700
     30 H14        -24.8250    22.2900    -3.4690 h1         1 V1H       0.072950
     31 H15        -23.2540    21.4240    -3.3330 h1         1 V1H       0.072950
@<TRIPOS>BOND
     1     1    13 1   
     2     1    17 1   
     3     1    18 1   
     4     1    19 1   
     5     2     3 1   
     6     2    11 1   
     7     2    13 1   
     8     2    20 1   
     9     3    12 1   
    10     3    21 1   
    11     3    22 1   
    12     4     5 ar  
    13     4     9 ar  
    14     4    16 1   
    15     5     6 ar  
    16     5    23 1   
    17     6     7 ar  
    18     6    24 1   
    19     7     8 ar  
    20     7    10 1   
    21     8     9 ar  
    22     8    25 1   
    23     9    26 1   
    24    10    27 1   
    25    10    28 1   
    26    10    29 1   
    27    11    12 1   
    28    11    30 1   
    29    11    31 1   
    30    12    16 1   
    31    14    16 2   
    32    15    16 2   
@<TRIPOS>SUBSTRUCTURE
     1 V1H         1 TEMP              0 ****  ****    0 ROOT
