@<TRIPOS>MOLECULE
V1I
   29    30     1     0     0
SMALL
No Charge or Current Charge


@<TRIPOS>ATOM
      1 N1          26.6370    16.4290   -11.4660 ns         1 V1I      -0.502900
      2 C7          27.5490    16.7690   -10.4110 cx         1 V1I       0.070700
      3 C8          28.6430    15.7820   -10.0880 cx         1 V1I      -0.139900
      4 C9          27.4800    15.9560    -9.1420 cx         1 V1I      -0.139900
      5 C1          24.6190    18.2390   -14.9750 c2         1 V1I      -0.246200
      6 C5          24.9870    14.0950   -12.7370 cx         1 V1I      -0.130900
      7 C6          26.6720    16.9550   -12.7340 c          1 V1I       0.651100
      8 C4          24.3130    14.2740   -14.0730 cx         1 V1I      -0.130900
      9 C3          24.6610    15.4850   -13.2360 cx         1 V1I       0.022700
     10 C2          25.5540    17.0470   -14.9690 c3         1 V1I       0.139200
     11 O           27.4980    17.7950   -13.0620 o          1 V1I      -0.638100
     12 N           25.6890    16.4620   -13.6160 n          1 V1I      -0.394800
     13 C           23.2840    18.1800   -15.1100 c2         1 V1I      -0.311000
     14 H1          25.9130    15.7440   -11.2970 hn         1 V1I       0.320500
     15 H2          27.7720    17.8350   -10.3270 h1         1 V1I       0.089700
     16 H3          28.6910    14.8660   -10.6720 hc         1 V1I       0.076450
     17 H4          29.6080    16.1810    -9.7870 hc         1 V1I       0.076450
     18 H5          27.6640    16.4730    -8.2030 hc         1 V1I       0.076450
     19 H6          26.7490    15.1540    -9.0840 hc         1 V1I       0.076450
     20 H7          25.1250    19.1990   -14.8530 ha         1 V1I       0.180000
     21 H8          24.3920    13.6980   -11.9180 hc         1 V1I       0.079450
     22 H9          26.0280    13.7800   -12.7400 hc         1 V1I       0.079450
     23 H10         23.2630    14.0040   -14.1530 hc         1 V1I       0.079450
     24 H11         24.9050    14.0690   -14.9610 hc         1 V1I       0.079450
     25 H12         23.8420    16.0230   -12.7560 h1         1 V1I       0.075700
     26 H13         25.1810    16.2860   -15.6670 h1         1 V1I       0.068700
     27 H14         26.5430    17.3490   -15.3410 h1         1 V1I       0.068700
     28 H15         22.6680    19.0810   -15.1030 ha         1 V1I       0.161500
     29 H16         22.7600    17.2300   -15.2290 ha         1 V1I       0.161500
@<TRIPOS>BOND
     1     1     2 1   
     2     1     7 1   
     3     1    14 1   
     4     2     3 1   
     5     2     4 1   
     6     2    15 1   
     7     3     4 1   
     8     3    16 1   
     9     3    17 1   
    10     4    18 1   
    11     4    19 1   
    12     5    10 1   
    13     5    13 2   
    14     5    20 1   
    15     6     8 1   
    16     6     9 1   
    17     6    21 1   
    18     6    22 1   
    19     7    11 2   
    20     7    12 1   
    21     8     9 1   
    22     8    23 1   
    23     8    24 1   
    24     9    12 1   
    25     9    25 1   
    26    10    12 1   
    27    10    26 1   
    28    10    27 1   
    29    13    28 1   
    30    13    29 1   
@<TRIPOS>SUBSTRUCTURE
     1 V1I         1 TEMP              0 ****  ****    0 ROOT
