@<TRIPOS>MOLECULE
V1I
   29    30     1     0     0
SMALL
abcg2


@<TRIPOS>ATOM
      1 N1          26.5370    16.3510   -11.3850 ns         1 V1I      -0.502900
      2 C7          27.4620    16.7600   -10.3740 cx         1 V1I       0.070700
      3 C8          28.7990    16.0780   -10.2720 cx         1 V1I      -0.139900
      4 C9          27.7220    15.8000    -9.2550 cx         1 V1I      -0.139900
      5 C1          24.6030    18.1230   -14.8050 c2         1 V1I      -0.246200
      6 C5          24.7910    14.1090   -12.6330 cx         1 V1I      -0.130900
      7 C6          26.6270    16.8000   -12.6670 c          1 V1I       0.651100
      8 C4          24.1320    14.3630   -13.9570 cx         1 V1I      -0.130900
      9 C3          24.5730    15.5220   -13.1140 cx         1 V1I       0.022700
     10 C2          25.5680    16.9730   -14.8540 c3         1 V1I       0.139200
     11 O           27.5020    17.6010   -13.0140 o          1 V1I      -0.638100
     12 N           25.6990    16.2990   -13.5580 n          1 V1I      -0.394800
     13 C           23.4950    18.1980   -15.5330 c2         1 V1I      -0.311000
     14 H1          25.7740    15.7520   -11.1210 hn         1 V1I       0.320500
     15 H2          27.4330    17.8150   -10.1280 h1         1 V1I       0.089700
     16 H3          29.0090    15.3060   -11.0000 hc         1 V1I       0.076450
     17 H4          29.6500    16.6770    -9.9750 hc         1 V1I       0.076450
     18 H5          27.8310    16.2070    -8.2590 hc         1 V1I       0.076450
     19 H6          27.2250    14.8400    -9.3030 hc         1 V1I       0.076450
     20 H7          24.8530    18.9200   -14.1090 ha         1 V1I       0.180000
     21 H8          24.1870    13.7620   -11.8040 hc         1 V1I       0.079450
     22 H9          25.8070    13.7400   -12.6490 hc         1 V1I       0.079450
     23 H10         23.0680    14.1940   -14.0520 hc         1 V1I       0.079450
     24 H11         24.7100    14.1480   -14.8450 hc         1 V1I       0.079450
     25 H12         23.7850    16.0860   -12.6230 h1         1 V1I       0.075700
     26 H13         25.2400    16.2400   -15.5900 h1         1 V1I       0.068700
     27 H14         26.5580    17.3240   -15.1370 h1         1 V1I       0.068700
     28 H15         22.8260    19.0470   -15.4670 ha         1 V1I       0.161500
     29 H16         23.2240    17.4080   -16.2260 ha         1 V1I       0.161500
@<TRIPOS>BOND
     1     1     2 1   
     2     1     7 1   
     3     1    14 1   
     4     2     3 1   
     5     2     4 1   
     6     2    15 1   
     7     3     4 1   
     8     3    16 1   
     9     3    17 1   
    10     4    18 1   
    11     4    19 1   
    12     5    10 1   
    13     5    13 2   
    14     5    20 1   
    15     6     8 1   
    16     6     9 1   
    17     6    21 1   
    18     6    22 1   
    19     7    11 2   
    20     7    12 1   
    21     8     9 1   
    22     8    23 1   
    23     8    24 1   
    24     9    12 1   
    25     9    25 1   
    26    10    12 1   
    27    10    26 1   
    28    10    27 1   
    29    13    28 1   
    30    13    29 1   
@<TRIPOS>SUBSTRUCTURE
     1 V1I         1 TEMP              0 ****  ****    0 ROOT
