@<TRIPOS>MOLECULE
V1J
  118   117     1     0     0
SMALL
abcg2


@<TRIPOS>ATOM
      1 C7          46.0830    24.2420    -4.2000 c3         1 V1J       0.149600
      2 C12         39.8220    25.5900    -6.2900 c3         1 V1J       0.160600
      3 C13         40.8420    27.6670    -6.7030 c3         1 V1J       0.119600
      4 C14         42.0880    28.2990    -7.2900 c3         1 V1J       0.161600
      5 C15         43.6330    28.0750    -5.4730 c3         1 V1J       0.120600
      6 C16         44.4390    29.3720    -5.4200 c3         1 V1J       0.121600
      7 C19         44.4000    27.0040    -1.0770 c3         1 V1J       0.154600
      8 C24         41.4110    30.2760    -2.8500 c3         1 V1J       0.117600
      9 C27         43.5470    29.9970     1.2080 c3         1 V1J       0.121600
     10 C32         40.1060    27.2790     7.2280 c3         1 V1J       0.124600
     11 C34         37.1030    27.5440     7.6300 c3         1 V1J       0.120600
     12 C17         45.9160    29.2800    -3.5280 c3         1 V1J       0.160600
     13 C18         45.7330    27.9900    -2.7580 c3         1 V1J       0.121600
     14 C23         39.9800    29.7720    -2.6950 c3         1 V1J       0.136600
     15 C25         41.7910    31.5660    -0.9090 c3         1 V1J       0.125600
     16 C26         43.2850    31.4960    -0.5990 c3         1 V1J       0.122600
     17 C28         43.5720    29.9790     2.7280 c3         1 V1J       0.149600
     18 C29         42.5220    27.9570     3.4010 c3         1 V1J       0.142600
     19 C10         41.6300    22.7560    -4.8400 c3         1 V1J       0.161600
     20 C11         40.1910    24.1430    -6.0740 c3         1 V1J       0.159600
     21 C20         43.2560    26.3240    -1.7960 c3         1 V1J       0.124600
     22 C21         41.0080    26.5120    -2.3770 c3         1 V1J       0.120600
     23 C22         39.7810    27.3930    -2.3340 c3         1 V1J       0.169600
     24 C30         41.9730    28.1800     4.8050 c3         1 V1J       0.130600
     25 C31         39.8630    27.9780     5.8890 c3         1 V1J       0.132600
     26 C33         38.1970    27.4220     8.6710 c3         1 V1J       0.164600
     27 C35         36.1540    29.0680     6.1130 c3         1 V1J       0.124600
     28 C36         36.2530    30.5060     5.6460 c3         1 V1J       0.163600
     29 C37         37.8240    30.4560     3.8760 c3         1 V1J       0.158600
     30 C38         39.1910    30.9910     3.4890 c3         1 V1J      -0.078400
     31 C39         39.5520    30.7260     2.0420 c3         1 V1J       0.156600
     32 C8          44.9670    23.4760    -3.5080 c3         1 V1J       0.118600
     33 C9          42.7480    22.7830    -3.8290 c3         1 V1J       0.164600
     34 O10         44.8340    28.1920    -1.6950 os         1 V1J      -0.438000
     35 O11         42.1080    27.1340    -1.7610 os         1 V1J      -0.451000
     36 O12         39.8250    28.4790    -3.2320 os         1 V1J      -0.469000
     37 O13         41.5490    31.5680    -2.2970 os         1 V1J      -0.446000
     38 O14         43.4960    31.3400     0.7870 os         1 V1J      -0.463000
     39 O15         43.7270    28.6640     3.2110 os         1 V1J      -0.454000
     40 O16         40.7340    27.5160     4.8850 os         1 V1J      -0.462000
     41 O17         39.4480    27.9350     8.2870 os         1 V1J      -0.440000
     42 O18         36.9880    28.8830     7.2280 os         1 V1J      -0.433000
     43 O19         37.5280    30.8820     5.1870 os         1 V1J      -0.447000
     44 O20         39.5760    29.3340     1.8010 oh         1 V1J      -0.664000
     45 O4          47.2020    24.4120    -3.3640 oh         1 V1J      -0.709000
     46 O5          43.8730    23.4130    -4.3870 os         1 V1J      -0.440000
     47 O6          41.2120    24.0680    -5.1120 os         1 V1J      -0.444000
     48 O7          40.9130    26.2730    -6.8520 os         1 V1J      -0.434000
     49 O8          43.2910    27.7540    -6.8010 os         1 V1J      -0.438000
     50 O9          44.7400    29.7910    -4.1100 os         1 V1J      -0.445000
     51 H15         45.6870    25.2030    -4.5560 h1         1 V1J       0.059200
     52 H14         46.4220    23.6900    -5.0790 h1         1 V1J       0.059200
     53 H25         39.5260    26.0370    -5.3310 h1         1 V1J       0.030200
     54 H24         38.9400    25.6340    -6.9450 h1         1 V1J       0.030200
     55 H26         40.7240    27.9360    -5.6450 h1         1 V1J       0.031700
     56 H27         39.9750    28.0940    -7.2290 h1         1 V1J       0.031700
     57 H28         42.1070    28.1400    -8.3700 h1         1 V1J       0.049200
     58 H29         42.0220    29.3830    -7.1290 h1         1 V1J       0.049200
     59 H31         42.7580    28.1570    -4.8170 h1         1 V1J       0.053700
     60 H30         44.2270    27.2360    -5.1010 h1         1 V1J       0.053700
     61 H32         45.3530    29.2610    -6.0180 h1         1 V1J       0.047700
     62 H33         43.8530    30.1760    -5.8760 h1         1 V1J       0.047700
     63 H38         44.0870    27.2660    -0.0630 h1         1 V1J       0.051700
     64 H39         45.2210    26.2800    -0.9820 h1         1 V1J       0.051700
     65 H48         42.1100    29.5630    -2.4020 h1         1 V1J       0.069200
     66 H49         41.6590    30.3480    -3.9120 h1         1 V1J       0.069200
     67 H55         42.6850    29.4230     0.8390 h1         1 V1J       0.033700
     68 H54         44.4490    29.5040     0.8220 h1         1 V1J       0.033700
     69 H64         39.8180    26.2220     7.1640 h1         1 V1J       0.044200
     70 H65         41.1770    27.3040     7.4550 h1         1 V1J       0.044200
     71 H69         36.1680    27.1700     8.0740 h1         1 V1J       0.023200
     72 H68         37.3160    26.8920     6.7700 h1         1 V1J       0.023200
     73 H35         46.6950    29.1140    -4.2830 h1         1 V1J       0.053200
     74 H34         46.2890    30.0510    -2.8470 h1         1 V1J       0.053200
     75 H36         45.3890    27.1950    -3.4290 h1         1 V1J       0.023700
     76 H37         46.7180    27.6760    -2.3830 h1         1 V1J       0.023700
     77 H46         39.6790    29.7940    -1.6390 h1         1 V1J       0.039200
     78 H47         39.3010    30.4430    -3.2300 h1         1 V1J       0.039200
     79 H51         41.3720    32.4870    -0.4970 h1         1 V1J       0.038700
     80 H50         41.2730    30.7350    -0.4140 h1         1 V1J       0.038700
     81 H52         43.7570    30.6840    -1.1650 h1         1 V1J       0.065700
     82 H53         43.7700    32.4260    -0.9040 h1         1 V1J       0.065700
     83 H56         44.4250    30.5610     3.0870 h1         1 V1J       0.054700
     84 H57         42.6660    30.4580     3.1230 h1         1 V1J       0.054700
     85 H59         41.7570    28.2470     2.6730 h1         1 V1J       0.058700
     86 H58         42.7350    26.8960     3.2450 h1         1 V1J       0.058700
     87 H20         41.9670    22.2500    -5.7560 h1         1 V1J       0.030700
     88 H21         40.8080    22.1530    -4.4290 h1         1 V1J       0.030700
     89 H22         39.2920    23.6020    -5.7470 h1         1 V1J       0.029200
     90 H23         40.5090    23.6860    -7.0230 h1         1 V1J       0.029200
     91 H40         43.5320    26.0860    -2.8350 h1         1 V1J       0.028700
     92 H41         43.0690    25.3610    -1.2960 h1         1 V1J       0.028700
     93 H42         40.7590    25.5730    -1.8590 h1         1 V1J       0.040700
     94 H43         41.2400    26.2410    -3.4160 h1         1 V1J       0.040700
     95 H45         39.6050    27.7350    -1.3070 h1         1 V1J       0.043700
     96 H44         38.9280    26.7650    -2.6100 h1         1 V1J       0.043700
     97 H60         42.6870    27.8120     5.5530 h1         1 V1J       0.030700
     98 H61         41.8450    29.2570     4.9850 h1         1 V1J       0.030700
     99 H63         39.9600    29.0620     6.0300 h1         1 V1J       0.058200
    100 H62         38.8510    27.7890     5.5270 h1         1 V1J       0.058200
    101 H67         38.2680    26.3620     8.9530 h1         1 V1J       0.050700
    102 H66         37.9110    27.9750     9.5690 h1         1 V1J       0.050700
    103 H70         35.1030    28.8590     6.3590 h1         1 V1J       0.023200
    104 H71         36.4280    28.3760     5.3030 h1         1 V1J       0.023200
    105 H73         36.0090    31.1720     6.4790 h1         1 V1J       0.051700
    106 H72         35.4890    30.6670     4.8740 h1         1 V1J       0.051700
    107 H74         37.0660    30.8330     3.1720 h1         1 V1J       0.025700
    108 H75         37.8120    29.3630     3.7990 h1         1 V1J       0.025700
    109 H77         39.9590    30.5730     4.1450 hc         1 V1J       0.059200
    110 H76         39.2090    32.0740     3.6370 hc         1 V1J       0.059200
    111 H79         40.5280    31.1830     1.8380 h1         1 V1J       0.023200
    112 H78         38.8250    31.2260     1.3870 h1         1 V1J       0.023200
    113 H16         45.3130    22.4700    -3.2280 h1         1 V1J       0.022200
    114 H17         44.6910    23.9890    -2.5750 h1         1 V1J       0.022200
    115 H19         42.9750    21.7470    -3.5400 h1         1 V1J       0.026700
    116 H18         42.4200    23.3040    -2.9180 h1         1 V1J       0.026700
    117 H1          39.7860    29.1870     0.8740 ho         1 V1J       0.439000
    118 H2          46.9500    24.9860    -2.6330 ho         1 V1J       0.493000
@<TRIPOS>BOND
     1     1    32 1   
     2     1    45 1   
     3     1    51 1   
     4     1    52 1   
     5     2    20 1   
     6     2    48 1   
     7     2    53 1   
     8     2    54 1   
     9     3     4 1   
    10     3    48 1   
    11     3    55 1   
    12     3    56 1   
    13     4    49 1   
    14     4    57 1   
    15     4    58 1   
    16     5     6 1   
    17     5    49 1   
    18     5    59 1   
    19     5    60 1   
    20     6    50 1   
    21     6    61 1   
    22     6    62 1   
    23     7    21 1   
    24     7    34 1   
    25     7    63 1   
    26     7    64 1   
    27     8    14 1   
    28     8    37 1   
    29     8    65 1   
    30     8    66 1   
    31     9    17 1   
    32     9    38 1   
    33     9    67 1   
    34     9    68 1   
    35    10    25 1   
    36    10    41 1   
    37    10    69 1   
    38    10    70 1   
    39    11    26 1   
    40    11    42 1   
    41    11    71 1   
    42    11    72 1   
    43    12    13 1   
    44    12    50 1   
    45    12    73 1   
    46    12    74 1   
    47    13    34 1   
    48    13    75 1   
    49    13    76 1   
    50    14    36 1   
    51    14    77 1   
    52    14    78 1   
    53    15    16 1   
    54    15    37 1   
    55    15    79 1   
    56    15    80 1   
    57    16    38 1   
    58    16    81 1   
    59    16    82 1   
    60    17    39 1   
    61    17    83 1   
    62    17    84 1   
    63    18    24 1   
    64    18    39 1   
    65    18    85 1   
    66    18    86 1   
    67    19    33 1   
    68    19    47 1   
    69    19    87 1   
    70    19    88 1   
    71    20    47 1   
    72    20    89 1   
    73    20    90 1   
    74    21    35 1   
    75    21    91 1   
    76    21    92 1   
    77    22    23 1   
    78    22    35 1   
    79    22    93 1   
    80    22    94 1   
    81    23    36 1   
    82    23    95 1   
    83    23    96 1   
    84    24    40 1   
    85    24    97 1   
    86    24    98 1   
    87    25    40 1   
    88    25    99 1   
    89    25   100 1   
    90    26    41 1   
    91    26   101 1   
    92    26   102 1   
    93    27    28 1   
    94    27    42 1   
    95    27   103 1   
    96    27   104 1   
    97    28    43 1   
    98    28   105 1   
    99    28   106 1   
   100    29    30 1   
   101    29    43 1   
   102    29   107 1   
   103    29   108 1   
   104    30    31 1   
   105    30   109 1   
   106    30   110 1   
   107    31    44 1   
   108    31   111 1   
   109    31   112 1   
   110    32    46 1   
   111    32   113 1   
   112    32   114 1   
   113    33    46 1   
   114    33   115 1   
   115    33   116 1   
   116    44   117 1   
   117    45   118 1   
@<TRIPOS>SUBSTRUCTURE
     1 V1J         1 TEMP              0 ****  ****    0 ROOT
