@<TRIPOS>MOLECULE
V1J
  118   117     1     0     0
SMALL
No Charge or Current Charge


@<TRIPOS>ATOM
      1 C7          45.5850    23.8460    -3.0960 c3         1 V1J       0.149600
      2 C12         40.5320    26.9830    -6.7060 c3         1 V1J       0.160600
      3 C13         41.6690    29.0310    -6.0830 c3         1 V1J       0.119600
      4 C14         43.0440    29.7470    -6.1910 c3         1 V1J       0.161600
      5 C15         43.9810    28.6810    -4.1370 c3         1 V1J       0.120600
      6 C16         44.0790    29.9800    -3.2930 c3         1 V1J       0.121600
      7 C19         42.8440    26.0520     0.0710 c3         1 V1J       0.154600
      8 C24         39.9220    30.4990    -2.5520 c3         1 V1J       0.117600
      9 C27         42.6290    30.7380     1.4190 c3         1 V1J       0.121600
     10 C32         41.0370    27.5840     7.1070 c3         1 V1J       0.124600
     11 C34         38.8870    29.7930     6.8610 c3         1 V1J       0.120600
     12 C17         44.9360    28.9400    -1.2120 c3         1 V1J       0.160600
     13 C18         44.5080    27.4570    -1.0600 c3         1 V1J       0.121600
     14 C23         39.8120    29.0130    -2.1250 c3         1 V1J       0.136600
     15 C25         40.1010    31.3320    -0.2240 c3         1 V1J       0.125600
     16 C26         41.4960    32.0010    -0.3380 c3         1 V1J       0.122600
     17 C28         43.2880    30.9350     2.8050 c3         1 V1J       0.149600
     18 C29         43.3610    28.5060     3.3300 c3         1 V1J       0.142600
     19 C10         41.7810    23.4940    -6.0700 c3         1 V1J       0.161600
     20 C11         40.8340    25.5040    -7.0440 c3         1 V1J       0.159600
     21 C20         42.1800    25.4760    -1.2100 c3         1 V1J       0.124600
     22 C21         40.4880    26.0330    -2.8470 c3         1 V1J       0.120600
     23 C22         39.1690    26.8290    -3.0330 c3         1 V1J       0.169600
     24 C30         42.3730    28.5970     4.5170 c3         1 V1J       0.130600
     25 C31         40.6830    27.2200     5.6330 c3         1 V1J       0.132600
     26 C33         40.1190    29.7860     7.8050 c3         1 V1J       0.164600
     27 C35         38.1830    30.4870     4.6480 c3         1 V1J       0.124600
     28 C36         38.7700    30.8480     3.2570 c3         1 V1J       0.163600
     29 C37         38.6810    28.6270     2.2270 c3         1 V1J       0.158600
     30 C38         39.6320    27.5470     1.6750 c3         1 V1J      -0.078400
     31 C39         38.8960    26.3280     1.0850 c3         1 V1J       0.156600
     32 C8          44.2800    23.0370    -3.2950 c3         1 V1J       0.118600
     33 C9          42.3390    22.9300    -4.7410 c3         1 V1J       0.164600
     34 O10         43.3720    27.3790    -0.1710 os         1 V1J      -0.438000
     35 O11         41.0120    26.2530    -1.5250 os         1 V1J      -0.451000
     36 O12         39.4340    28.2320    -3.2770 os         1 V1J      -0.469000
     37 O13         39.4190    31.3650    -1.5010 os         1 V1J      -0.446000
     38 O14         42.1350    32.0150     0.9590 os         1 V1J      -0.463000
     39 O15         44.0670    29.7640     3.1630 os         1 V1J      -0.454000
     40 O16         41.8520    27.2780     4.7780 os         1 V1J      -0.462000
     41 O17         41.2250    29.0120     7.2700 os         1 V1J      -0.440000
     42 O18         39.2630    30.3600     5.5920 os         1 V1J      -0.433000
     43 O19         39.4870    29.7240     2.6940 os         1 V1J      -0.447000
     44 O20         38.1300    25.6670     2.0990 oh         1 V1J      -0.664000
     45 O4          46.3670    23.3030    -2.0140 oh         1 V1J      -0.709000
     46 O5          43.6050    23.5580    -4.4520 os         1 V1J      -0.440000
     47 O6          41.3860    24.8660    -5.8750 os         1 V1J      -0.444000
     48 O7          41.7730    27.7140    -6.6560 os         1 V1J      -0.434000
     49 O8          44.1010    28.9830    -5.5500 os         1 V1J      -0.438000
     50 O9          43.8990    29.7000    -1.8840 os         1 V1J      -0.445000
     51 H15         45.3270    24.8960    -2.9000 h1         1 V1J       0.059200
     52 H14         46.1620    23.8160    -4.0300 h1         1 V1J       0.059200
     53 H25         40.0030    27.0330    -5.7470 h1         1 V1J       0.030200
     54 H24         39.8760    27.4050    -7.4780 h1         1 V1J       0.030200
     55 H26         41.3520    28.9820    -5.0350 h1         1 V1J       0.031700
     56 H27         40.9240    29.6260    -6.6280 h1         1 V1J       0.031700
     57 H28         43.2800    29.8820    -7.2540 h1         1 V1J       0.049200
     58 H29         42.9620    30.7510    -5.7550 h1         1 V1J       0.049200
     59 H31         43.0420    28.1580    -3.9140 h1         1 V1J       0.053700
     60 H30         44.8050    28.0160    -3.8550 h1         1 V1J       0.053700
     61 H32         45.0500    30.4600    -3.4710 h1         1 V1J       0.047700
     62 H33         43.3000    30.6810    -3.6150 h1         1 V1J       0.047700
     63 H38         42.0960    26.0840     0.8730 h1         1 V1J       0.051700
     64 H39         43.6450    25.3760     0.3970 h1         1 V1J       0.051700
     65 H48         40.9640    30.7310    -2.8070 h1         1 V1J       0.069200
     66 H49         39.3250    30.6500    -3.4610 h1         1 V1J       0.069200
     67 H55         41.8190    30.0050     1.5050 h1         1 V1J       0.033700
     68 H54         43.3750    30.3480     0.7180 h1         1 V1J       0.033700
     69 H64         40.2410    27.2190     7.7700 h1         1 V1J       0.044200
     70 H65         41.9560    27.0510     7.3820 h1         1 V1J       0.044200
     71 H69         38.0960    30.3970     7.3260 h1         1 V1J       0.023200
     72 H68         38.4980    28.7740     6.7410 h1         1 V1J       0.023200
     73 H35         45.8850    28.9920    -1.7630 h1         1 V1J       0.053200
     74 H34         45.1210    29.3500    -0.2120 h1         1 V1J       0.053200
     75 H36         44.2770    27.0360    -2.0420 h1         1 V1J       0.023700
     76 H37         45.3500    26.8900    -0.6430 h1         1 V1J       0.023700
     77 H46         40.7780    28.6930    -1.7170 h1         1 V1J       0.039200
     78 H47         39.0500    28.9110    -1.3400 h1         1 V1J       0.039200
     79 H51         39.5130    31.8870     0.5180 h1         1 V1J       0.038700
     80 H50         40.2000    30.3030     0.1380 h1         1 V1J       0.038700
     81 H52         42.1180    31.4670    -1.0670 h1         1 V1J       0.065700
     82 H53         41.3610    33.0280    -0.7010 h1         1 V1J       0.065700
     83 H56         43.9480    31.8100     2.7540 h1         1 V1J       0.054700
     84 H57         42.5150    31.1520     3.5530 h1         1 V1J       0.054700
     85 H59         42.8170    28.2250     2.4190 h1         1 V1J       0.058700
     86 H58         44.0830    27.7060     3.5390 h1         1 V1J       0.058700
     87 H20         42.5470    23.4130    -6.8520 h1         1 V1J       0.030700
     88 H21         40.9170    22.8900    -6.3750 h1         1 V1J       0.030700
     89 H22         39.9000    25.0090    -7.3410 h1         1 V1J       0.029200
     90 H23         41.5320    25.4560    -7.8900 h1         1 V1J       0.029200
     91 H40         42.8920    25.4760    -2.0440 h1         1 V1J       0.028700
     92 H41         41.8950    24.4320    -1.0240 h1         1 V1J       0.028700
     93 H42         40.2730    24.9670    -2.9950 h1         1 V1J       0.040700
     94 H43         41.2130    26.3420    -3.6110 h1         1 V1J       0.040700
     95 H45         38.5200    26.6920    -2.1590 h1         1 V1J       0.043700
     96 H44         38.6430    26.4060    -3.8980 h1         1 V1J       0.043700
     97 H60         42.9070    28.9860     5.3940 h1         1 V1J       0.030700
     98 H61         41.5600    29.2880     4.2650 h1         1 V1J       0.030700
     99 H63         39.8870    27.8660     5.2470 h1         1 V1J       0.058200
    100 H62         40.2870    26.1960     5.6300 h1         1 V1J       0.058200
    101 H67         39.8140    29.3890     8.7820 h1         1 V1J       0.050700
    102 H66         40.4360    30.8240     7.9640 h1         1 V1J       0.050700
    103 H70         37.5020    31.2880     4.9650 h1         1 V1J       0.023200
    104 H71         37.5980    29.5610     4.5890 h1         1 V1J       0.023200
    105 H73         39.4440    31.7060     3.3720 h1         1 V1J       0.051700
    106 H72         37.9550    31.1570     2.5890 h1         1 V1J       0.051700
    107 H74         38.0020    28.9590     1.4310 h1         1 V1J       0.025700
    108 H75         38.0830    28.1980     3.0400 h1         1 V1J       0.025700
    109 H77         40.3020    27.2110     2.4740 hc         1 V1J       0.059200
    110 H76         40.2610    27.9870     0.8930 hc         1 V1J       0.059200
    111 H79         39.6360    25.6340     0.6650 h1         1 V1J       0.023200
    112 H78         38.2440    26.6600     0.2660 h1         1 V1J       0.023200
    113 H16         44.5250    21.9760    -3.4410 h1         1 V1J       0.022200
    114 H17         43.6480    23.1300    -2.4020 h1         1 V1J       0.022200
    115 H19         42.4700    21.8450    -4.8490 h1         1 V1J       0.026700
    116 H18         41.6190    23.1070    -3.9310 h1         1 V1J       0.026700
    117 H1          37.7100    24.8850     1.6770 ho         1 V1J       0.439000
    118 H2          45.8310    23.3820    -1.1910 ho         1 V1J       0.493000
@<TRIPOS>BOND
     1     1    32 1   
     2     1    45 1   
     3     1    51 1   
     4     1    52 1   
     5     2    20 1   
     6     2    48 1   
     7     2    53 1   
     8     2    54 1   
     9     3     4 1   
    10     3    48 1   
    11     3    55 1   
    12     3    56 1   
    13     4    49 1   
    14     4    57 1   
    15     4    58 1   
    16     5     6 1   
    17     5    49 1   
    18     5    59 1   
    19     5    60 1   
    20     6    50 1   
    21     6    61 1   
    22     6    62 1   
    23     7    21 1   
    24     7    34 1   
    25     7    63 1   
    26     7    64 1   
    27     8    14 1   
    28     8    37 1   
    29     8    65 1   
    30     8    66 1   
    31     9    17 1   
    32     9    38 1   
    33     9    67 1   
    34     9    68 1   
    35    10    25 1   
    36    10    41 1   
    37    10    69 1   
    38    10    70 1   
    39    11    26 1   
    40    11    42 1   
    41    11    71 1   
    42    11    72 1   
    43    12    13 1   
    44    12    50 1   
    45    12    73 1   
    46    12    74 1   
    47    13    34 1   
    48    13    75 1   
    49    13    76 1   
    50    14    36 1   
    51    14    77 1   
    52    14    78 1   
    53    15    16 1   
    54    15    37 1   
    55    15    79 1   
    56    15    80 1   
    57    16    38 1   
    58    16    81 1   
    59    16    82 1   
    60    17    39 1   
    61    17    83 1   
    62    17    84 1   
    63    18    24 1   
    64    18    39 1   
    65    18    85 1   
    66    18    86 1   
    67    19    33 1   
    68    19    47 1   
    69    19    87 1   
    70    19    88 1   
    71    20    47 1   
    72    20    89 1   
    73    20    90 1   
    74    21    35 1   
    75    21    91 1   
    76    21    92 1   
    77    22    23 1   
    78    22    35 1   
    79    22    93 1   
    80    22    94 1   
    81    23    36 1   
    82    23    95 1   
    83    23    96 1   
    84    24    40 1   
    85    24    97 1   
    86    24    98 1   
    87    25    40 1   
    88    25    99 1   
    89    25   100 1   
    90    26    41 1   
    91    26   101 1   
    92    26   102 1   
    93    27    28 1   
    94    27    42 1   
    95    27   103 1   
    96    27   104 1   
    97    28    43 1   
    98    28   105 1   
    99    28   106 1   
   100    29    30 1   
   101    29    43 1   
   102    29   107 1   
   103    29   108 1   
   104    30    31 1   
   105    30   109 1   
   106    30   110 1   
   107    31    44 1   
   108    31   111 1   
   109    31   112 1   
   110    32    46 1   
   111    32   113 1   
   112    32   114 1   
   113    33    46 1   
   114    33   115 1   
   115    33   116 1   
   116    44   117 1   
   117    45   118 1   
@<TRIPOS>SUBSTRUCTURE
     1 V1J         1 TEMP              0 ****  ****    0 ROOT
