@<TRIPOS>MOLECULE
V1K
   35    37     1     0     0
SMALL
abcg2


@<TRIPOS>ATOM
      1 C02        -19.5420   -19.8610     4.9940 c3         1 V1K      -0.061800
      2 C03        -18.7180   -20.2130     3.7940 ca         1 V1K      -0.005300
      3 C04        -18.1100   -19.2180     3.0300 ca         1 V1K      -0.132500
      4 C05        -17.3700   -19.5300     1.9020 ca         1 V1K       0.000500
      5 C06        -17.2390   -20.8630     1.5380 ca         1 V1K      -0.310500
      6 C09        -17.4920   -23.1480    -1.5540 ca         1 V1K      -0.003200
      7 C10        -16.7630   -24.3130    -1.3910 ca         1 V1K      -0.148000
      8 C11        -17.1320   -25.4040    -2.1760 ca         1 V1K       0.161100
      9 C13        -16.6650   -27.6570    -2.7760 c3         1 V1K       0.148900
     10 C14        -18.1970   -25.3230    -3.0870 ca         1 V1K      -0.207000
     11 C15        -18.9120   -24.1480    -3.2330 ca         1 V1K      -0.013000
     12 C16        -18.5550   -23.0520    -2.4620 ca         1 V1K       0.037400
     13 C18        -18.4140   -21.1340    -1.5910 cc         1 V1K       0.474800
     14 C22        -17.8210   -21.8800     2.2870 ca         1 V1K       0.000500
     15 C23        -18.5600   -21.5450     3.4060 ca         1 V1K      -0.132500
     16 N08        -17.4160   -21.8760    -0.9800 na         1 V1K      -0.294800
     17 N17        -19.1020   -21.7850    -2.4500 nd         1 V1K      -0.528100
     18 S07        -16.2600   -21.2980     0.1480 sy         1 V1K       1.183700
     19 CL1        -18.6850   -19.5090    -1.1990 cl         1 V1K      -0.034300
     20 H1         -20.5900   -19.7420     4.7120 hc         1 V1K       0.052700
     21 H2         -19.4970   -20.6420     5.7520 hc         1 V1K       0.052700
     22 H3         -19.2170   -18.9240     5.4430 hc         1 V1K       0.052700
     23 H4         -18.2140   -18.1800     3.3210 ha         1 V1K       0.122000
     24 H5         -16.9070   -18.7410     1.3260 ha         1 V1K       0.138500
     25 H6         -15.9370   -24.4040    -0.7040 ha         1 V1K       0.167000
     26 H7         -15.9440   -28.4130    -2.4760 h1         1 V1K       0.042367
     27 H8         -17.6720   -28.0450    -2.6050 h1         1 V1K       0.042367
     28 H9         -16.5410   -27.4570    -3.8440 h1         1 V1K       0.042367
     29 H10        -18.4750   -26.1750    -3.6920 ha         1 V1K       0.122000
     30 H11        -19.7310   -24.0840    -3.9370 ha         1 V1K       0.132000
     31 H12        -17.7070   -22.9200     2.0080 ha         1 V1K       0.138500
     32 H13        -19.0150   -22.3320     3.9920 ha         1 V1K       0.122000
     33 O12        -16.3950   -26.5140    -1.9900 os         1 V1K      -0.337100
     34 O20        -15.6610   -20.1230    -0.4360 o          1 V1K      -0.512500
     35 O21        -15.4540   -22.4560     0.4620 o          1 V1K      -0.512500
@<TRIPOS>BOND
     1     1     2 1   
     2     1    20 1   
     3     1    21 1   
     4     1    22 1   
     5     2     3 ar  
     6     2    15 ar  
     7     3     4 ar  
     8     3    23 1   
     9     4     5 ar  
    10     4    24 1   
    11     5    14 ar  
    12     5    18 1   
    13     6     7 ar  
    14     6    12 ar  
    15     6    16 1   
    16     7     8 ar  
    17     7    25 1   
    18     8    10 ar  
    19     8    33 1   
    20     9    26 1   
    21     9    27 1   
    22     9    28 1   
    23     9    33 1   
    24    10    11 ar  
    25    10    29 1   
    26    11    12 ar  
    27    11    30 1   
    28    12    17 1   
    29    13    16 1   
    30    13    17 2   
    31    13    19 1   
    32    14    15 ar  
    33    14    31 1   
    34    15    32 1   
    35    16    18 1   
    36    18    34 2   
    37    18    35 2   
@<TRIPOS>SUBSTRUCTURE
     1 V1K         1 TEMP              0 ****  ****    0 ROOT
