@<TRIPOS>MOLECULE
V1K
   35    37     1     0     0
SMALL
No Charge or Current Charge


@<TRIPOS>ATOM
      1 C02        -19.6270   -20.1620     4.9520 c3         1 V1K      -0.061800
      2 C03        -18.7480   -20.3850     3.7320 ca         1 V1K      -0.005300
      3 C04        -18.1670   -19.2900     3.0660 ca         1 V1K      -0.132500
      4 C05        -17.3570   -19.4900     1.9350 ca         1 V1K       0.000500
      5 C06        -17.1240   -20.7990     1.4590 ca         1 V1K      -0.310500
      6 C09        -17.4210   -22.9900    -1.6530 ca         1 V1K      -0.003200
      7 C10        -16.7180   -24.1880    -1.4320 ca         1 V1K      -0.148000
      8 C11        -17.1530   -25.3540    -2.0930 ca         1 V1K       0.161100
      9 C13        -16.8080   -27.7660    -2.4870 c3         1 V1K       0.148900
     10 C14        -18.2760   -25.2990    -2.9590 ca         1 V1K      -0.207000
     11 C15        -18.9590   -24.0810    -3.1590 ca         1 V1K      -0.013000
     12 C16        -18.5040   -22.9380    -2.4870 ca         1 V1K       0.037400
     13 C18        -18.2580   -20.9440    -1.7240 cc         1 V1K       0.474800
     14 C22        -17.7070   -21.8970     2.1240 ca         1 V1K       0.000500
     15 C23        -18.5150   -21.6870     3.2540 ca         1 V1K      -0.132500
     16 N08        -17.2380   -21.7160    -1.1640 na         1 V1K      -0.294800
     17 N17        -19.0450   -21.6630    -2.5460 nd         1 V1K      -0.528100
     18 S07        -16.1030   -21.0900    -0.0010 sy         1 V1K       1.183700
     19 Cl1        -18.5620   -19.2620    -1.3800 cl         1 V1K      -0.034300
     20 H1         -20.6750   -20.0320     4.6590 hc         1 V1K       0.052700
     21 H2         -19.5750   -21.0120     5.6430 hc         1 V1K       0.052700
     22 H3         -19.3210   -19.2680     5.5080 hc         1 V1K       0.052700
     23 H4         -18.3440   -18.2790     3.4250 ha         1 V1K       0.122000
     24 H5         -16.9190   -18.6260     1.4380 ha         1 V1K       0.138500
     25 H6         -15.8580   -24.2440    -0.7740 ha         1 V1K       0.167000
     26 H7         -16.1230   -28.5600    -2.1680 h1         1 V1K       0.042367
     27 H8         -17.8270   -28.0640    -2.2070 h1         1 V1K       0.042367
     28 H9         -16.7510   -27.6860    -3.5800 h1         1 V1K       0.042367
     29 H10        -18.6300   -26.1840    -3.4800 ha         1 V1K       0.122000
     30 H11        -19.8230   -24.0280    -3.8180 ha         1 V1K       0.132000
     31 H12        -17.5390   -22.9140     1.7670 ha         1 V1K       0.138500
     32 H13        -18.9620   -22.5410     3.7570 ha         1 V1K       0.122000
     33 O12        -16.4510   -26.5190    -1.8640 os         1 V1K      -0.337100
     34 O20        -15.6670   -19.7800    -0.5060 o          1 V1K      -0.512500
     35 O21        -15.1540   -22.1710     0.2950 o          1 V1K      -0.512500
@<TRIPOS>BOND
     1     1     2 1   
     2     1    20 1   
     3     1    21 1   
     4     1    22 1   
     5     2     3 ar  
     6     2    15 ar  
     7     3     4 ar  
     8     3    23 1   
     9     4     5 ar  
    10     4    24 1   
    11     5    14 ar  
    12     5    18 1   
    13     6     7 ar  
    14     6    12 ar  
    15     6    16 1   
    16     7     8 ar  
    17     7    25 1   
    18     8    10 ar  
    19     8    33 1   
    20     9    26 1   
    21     9    27 1   
    22     9    28 1   
    23     9    33 1   
    24    10    11 ar  
    25    10    29 1   
    26    11    12 ar  
    27    11    30 1   
    28    12    17 1   
    29    13    16 1   
    30    13    17 2   
    31    13    19 1   
    32    14    15 ar  
    33    14    31 1   
    34    15    32 1   
    35    16    18 1   
    36    18    34 2   
    37    18    35 2   
@<TRIPOS>SUBSTRUCTURE
     1 V1K         1 TEMP              0 ****  ****    0 ROOT
