@<TRIPOS>MOLECULE
V1L
   16    16     1     0     0
SMALL
abcg2


@<TRIPOS>ATOM
      1 O05         -2.3270    -0.0460    -0.0290 o          1 V1L      -0.577000
      2 C04         -1.1000    -0.0220    -0.0030 c          1 V1L       0.565000
      3 C06         -0.3440     1.2870    -0.0760 c6         1 V1L      -0.161400
      4 C07          1.1140     1.2060     0.3520 c6         1 V1L      -0.073400
      5 C08          1.7680    -0.0040    -0.2960 c6         1 V1L      -0.093400
      6 C02          1.0700    -1.2680     0.1660 c6         1 V1L       0.115000
      7 N03         -0.3730    -1.1500     0.0460 ns         1 V1L      -0.510900
      8 H1          -0.4050     1.6210    -1.1170 hc         1 V1L       0.071200
      9 H2          -0.8950     2.0230     0.5110 hc         1 V1L       0.071200
     10 H3           1.6300     2.1260     0.0750 hc         1 V1L       0.048200
     11 H4           1.1840     1.1210     1.4400 hc         1 V1L       0.048200
     12 H5           1.7090     0.0810    -1.3850 hc         1 V1L       0.052700
     13 H6           2.8260    -0.0700    -0.0360 hc         1 V1L       0.052700
     14 H7           1.3930    -2.1240    -0.4270 h1         1 V1L       0.038700
     15 H8           1.3390    -1.4780     1.2050 h1         1 V1L       0.038700
     16 H9          -0.9020    -2.0070     0.1070 hn         1 V1L       0.313500
@<TRIPOS>BOND
     1     1     2 2   
     2     2     3 1   
     3     2     7 1   
     4     3     4 1   
     5     3     8 1   
     6     3     9 1   
     7     4     5 1   
     8     4    10 1   
     9     4    11 1   
    10     5     6 1   
    11     5    12 1   
    12     5    13 1   
    13     6     7 1   
    14     6    14 1   
    15     6    15 1   
    16     7    16 1   
@<TRIPOS>SUBSTRUCTURE
     1 V1L         1 TEMP              0 ****  ****    0 ROOT
