@<TRIPOS>MOLECULE
V1L
   16    16     1     0     0
SMALL
No Charge or Current Charge


@<TRIPOS>ATOM
      1 O05         -2.3470    -0.0600     0.0130 o          1 V1L      -0.577000
      2 C04         -1.1270    -0.0220    -0.0040 c          1 V1L       0.565000
      3 C06         -0.3620     1.3100    -0.0850 c6         1 V1L      -0.161400
      4 C07          1.1160     1.2320     0.3630 c6         1 V1L      -0.073400
      5 C08          1.7920     0.0030    -0.2750 c6         1 V1L      -0.093400
      6 C02          1.0710    -1.3010     0.1290 c6         1 V1L       0.115000
      7 N03         -0.3970    -1.1840     0.1120 ns         1 V1L      -0.510900
      8 H1          -0.3770     1.5910    -1.1460 hc         1 V1L       0.071200
      9 H2          -0.9280     2.0930     0.4370 hc         1 V1L       0.071200
     10 H3           1.6470     2.1510     0.0810 hc         1 V1L       0.048200
     11 H4           1.1700     1.1580     1.4590 hc         1 V1L       0.048200
     12 H5           1.7760     0.1050    -1.3690 hc         1 V1L       0.052700
     13 H6           2.8500    -0.0490     0.0180 hc         1 V1L       0.052700
     14 H7           1.3750    -2.1210    -0.5370 h1         1 V1L       0.038700
     15 H8           1.3690    -1.5740     1.1520 h1         1 V1L       0.038700
     16 H9          -0.9420    -2.0350     0.1860 hn         1 V1L       0.313500
@<TRIPOS>BOND
     1     1     2 2   
     2     2     3 1   
     3     2     7 1   
     4     3     4 1   
     5     3     8 1   
     6     3     9 1   
     7     4     5 1   
     8     4    10 1   
     9     4    11 1   
    10     5     6 1   
    11     5    12 1   
    12     5    13 1   
    13     6     7 1   
    14     6    14 1   
    15     6    15 1   
    16     7    16 1   
@<TRIPOS>SUBSTRUCTURE
     1 V1L         1 TEMP              0 ****  ****    0 ROOT
