@<TRIPOS>MOLECULE
V1O
   43    44     1     0     0
SMALL
No Charge or Current Charge


@<TRIPOS>ATOM
      1 C7          18.8510    67.9110    42.6630 ca         1 V1O       0.029400
      2 C8          17.9140    67.8170    43.7090 ca         1 V1O      -0.086000
      3 C9          17.5320    66.5590    44.2000 ca         1 V1O       0.111100
      4 C10         18.0880    65.3810    43.6590 ca         1 V1O       0.060100
      5 C11         18.1730    62.9090    43.6830 c3         1 V1O       0.156900
      6 C12         19.0380    65.4760    42.6180 ca         1 V1O      -0.150000
      7 O1          16.6150    66.4710    45.2090 oh         1 V1O      -0.532100
      8 C2          15.3040    67.4880    39.5730 ca         1 V1O      -0.151300
      9 C3          16.6030    67.3260    39.0420 ca         1 V1O       0.177600
     10 C4          18.0800    66.1470    37.4420 c3         1 V1O       0.147400
     11 C5          17.6760    68.0740    39.5670 ca         1 V1O      -0.211500
     12 C6          17.4660    68.9690    40.6250 ca         1 V1O       0.108400
     13 O2          17.6730    64.1660    44.1770 os         1 V1O      -0.372100
     14 N           18.5550    69.6870    41.1720 ne         1 V1O      -0.144400
     15 C           13.9780    65.3270    39.7640 c3         1 V1O       0.112600
     16 O           16.7890    66.4120    38.0200 os         1 V1O      -0.348100
     17 C13         19.4180    66.7390    42.1270 ca         1 V1O      -0.095000
     18 C14         16.1770    69.1350    41.1520 ca         1 V1O      -0.211500
     19 C15         15.0950    68.3930    40.6380 ca         1 V1O       0.177600
     20 C16         13.5210    69.3680    42.2800 c3         1 V1O       0.147400
     21 N1          19.2180    69.1850    42.1450 nf         1 V1O      -0.127400
     22 Br          12.4580    64.2540    39.0440 br         1 V1O      -0.301000
     23 H1          17.4760    68.7180    44.1290 ha         1 V1O       0.147000
     24 H2          17.7130    62.0750    44.2290 h1         1 V1O       0.046367
     25 H3          17.9390    62.7870    42.6180 h1         1 V1O       0.046367
     26 H4          19.2600    62.8420    43.8150 h1         1 V1O       0.046367
     27 H13         19.4880    64.5910    42.1780 ha         1 V1O       0.123000
     28 H5          16.4970    65.5130    45.3950 ho         1 V1O       0.482000
     29 H6          14.2690    66.4620    37.9500 hc         1 V1O       0.072700
     30 H7          13.1930    67.2220    39.0890 hc         1 V1O       0.072700
     31 H8          17.9960    65.3860    36.6570 h1         1 V1O       0.046533
     32 H9          18.5000    67.0550    36.9910 h1         1 V1O       0.046533
     33 H10         18.7790    65.7750    38.2030 h1         1 V1O       0.046533
     34 H11         18.6830    67.9630    39.1790 ha         1 V1O       0.134500
     35 H           13.7750    65.4970    40.8290 h1         1 V1O       0.072200
     36 H19         14.8830    64.7140    39.6570 h1         1 V1O       0.072200
     37 H14         20.1450    66.8100    41.3210 ha         1 V1O       0.127000
     38 H15         16.0430    69.8330    41.9720 ha         1 V1O       0.134500
     39 H18         12.4560    69.3000    42.5350 h1         1 V1O       0.046533
     40 H17         14.1000    69.0740    43.1640 h1         1 V1O       0.046533
     41 H16         13.7450    70.4150    42.0420 h1         1 V1O       0.046533
     42 O3          13.8210    68.5120    41.1630 os         1 V1O      -0.348100
     43 C1          14.1340    66.6640    39.0190 c3         1 V1O      -0.007100
@<TRIPOS>BOND
     1     1     2 ar  
     2     1    17 ar  
     3     1    21 1   
     4     2     3 ar  
     5     2    23 1   
     6     3     4 ar  
     7     3     7 1   
     8     4     6 ar  
     9     4    13 1   
    10     5    13 1   
    11     5    24 1   
    12     5    25 1   
    13     5    26 1   
    14     6    17 ar  
    15     6    27 1   
    16     7    28 1   
    17     8     9 ar  
    18     8    19 ar  
    19     8    43 1   
    20     9    11 ar  
    21     9    16 1   
    22    10    16 1   
    23    10    31 1   
    24    10    32 1   
    25    10    33 1   
    26    11    12 ar  
    27    11    34 1   
    28    12    14 1   
    29    12    18 ar  
    30    14    21 2   
    31    15    22 1   
    32    15    35 1   
    33    15    36 1   
    34    15    43 1   
    35    17    37 1   
    36    18    19 ar  
    37    18    38 1   
    38    19    42 1   
    39    20    39 1   
    40    20    40 1   
    41    20    41 1   
    42    20    42 1   
    43    29    43 1   
    44    30    43 1   
@<TRIPOS>SUBSTRUCTURE
     1 V1O         1 TEMP              0 ****  ****    0 ROOT
