@<TRIPOS>MOLECULE
V1O
   43    44     1     0     0
SMALL
abcg2


@<TRIPOS>ATOM
      1 C7          18.7070    67.8300    42.8430 ca         1 V1O       0.029400
      2 C8          18.5160    68.0330    44.2120 ca         1 V1O      -0.086000
      3 C9          18.1610    66.9720    45.0210 ca         1 V1O       0.111100
      4 C10         18.0570    65.6770    44.4790 ca         1 V1O       0.060100
      5 C11         17.6010    63.3680    44.9210 c3         1 V1O       0.156900
      6 C12         18.3050    65.4740    43.1260 ca         1 V1O      -0.150000
      7 O1          17.9300    67.1810    46.3460 oh         1 V1O      -0.532100
      8 C2          15.3650    67.3830    39.1230 ca         1 V1O      -0.151300
      9 C3          16.6010    67.4750    38.4690 ca         1 V1O       0.177600
     10 C4          17.8810    67.0030    36.4980 c3         1 V1O       0.147400
     11 C5          17.6970    68.0860    39.0790 ca         1 V1O      -0.211500
     12 C6          17.5630    68.5480    40.3810 ca         1 V1O       0.108400
     13 O2          17.7280    64.7160    45.3800 os         1 V1O      -0.372100
     14 N           18.6840    69.2310    40.9550 ne         1 V1O      -0.144400
     15 C           14.1290    65.2660    38.8440 c3         1 V1O       0.112600
     16 O           16.6500    66.9430    37.2190 os         1 V1O      -0.348100
     17 C13         18.6180    66.5500    42.3030 ca         1 V1O      -0.095000
     18 C14         16.3520    68.4780    41.0640 ca         1 V1O      -0.211500
     19 C15         15.2630    67.8920    40.4260 ca         1 V1O       0.177600
     20 C16         13.8810    68.2230    42.3550 c3         1 V1O       0.147400
     21 N1          19.1290    68.9650    42.0860 nf         1 V1O      -0.127400
     22 BR          12.5410    64.3670    38.0460 br         1 V1O      -0.301000
     23 H1          18.6190    69.0230    44.6370 ha         1 V1O       0.147000
     24 H2          17.3260    62.7810    45.7930 h1         1 V1O       0.046367
     25 H3          16.8200    63.2920    44.1610 h1         1 V1O       0.046367
     26 H4          18.5480    63.0080    44.5140 h1         1 V1O       0.046367
     27 H13         18.2540    64.4810    42.7050 ha         1 V1O       0.123000
     28 H5          17.7120    66.3300    46.7580 ho         1 V1O       0.482000
     29 H6          14.2540    66.8300    37.3790 hc         1 V1O       0.072700
     30 H7          13.2610    67.2250    38.7840 hc         1 V1O       0.072700
     31 H8          17.6880    66.5190    35.5440 h1         1 V1O       0.046533
     32 H9          18.1880    68.0370    36.3310 h1         1 V1O       0.046533
     33 H10         18.6710    66.4670    37.0290 h1         1 V1O       0.046533
     34 H11         18.6480    68.1830    38.5790 ha         1 V1O       0.134500
     35 H           14.0200    65.1200    39.9130 h1         1 V1O       0.072200
     36 H19         14.9820    64.7090    38.4690 h1         1 V1O       0.072200
     37 H14         18.8040    66.3830    41.2530 ha         1 V1O       0.127000
     38 H15         16.2780    68.8600    42.0690 ha         1 V1O       0.134500
     39 H18         12.8490    68.0070    42.6170 h1         1 V1O       0.046533
     40 H17         14.5530    67.6910    43.0330 h1         1 V1O       0.046533
     41 H16         14.0620    69.2970    42.4280 h1         1 V1O       0.046533
     42 O3          14.0440    67.7640    41.0130 os         1 V1O      -0.348100
     43 C1          14.1770    66.7350    38.4600 c3         1 V1O      -0.007100
@<TRIPOS>BOND
     1     1     2 ar  
     2     1    17 ar  
     3     1    21 1   
     4     2     3 ar  
     5     2    23 1   
     6     3     4 ar  
     7     3     7 1   
     8     4     6 ar  
     9     4    13 1   
    10     5    13 1   
    11     5    24 1   
    12     5    25 1   
    13     5    26 1   
    14     6    17 ar  
    15     6    27 1   
    16     7    28 1   
    17     8     9 ar  
    18     8    19 ar  
    19     8    43 1   
    20     9    11 ar  
    21     9    16 1   
    22    10    16 1   
    23    10    31 1   
    24    10    32 1   
    25    10    33 1   
    26    11    12 ar  
    27    11    34 1   
    28    12    14 1   
    29    12    18 ar  
    30    14    21 2   
    31    15    22 1   
    32    15    35 1   
    33    15    36 1   
    34    15    43 1   
    35    17    37 1   
    36    18    19 ar  
    37    18    38 1   
    38    19    42 1   
    39    20    39 1   
    40    20    40 1   
    41    20    41 1   
    42    20    42 1   
    43    29    43 1   
    44    30    43 1   
@<TRIPOS>SUBSTRUCTURE
     1 V1O         1 TEMP              0 ****  ****    0 ROOT
