@<TRIPOS>MOLECULE
V1P
   68    70     1     0     0
SMALL
bcc


@<TRIPOS>ATOM
      1 O1          76.7070    32.7550    -1.5280 o          1 V1P      -0.551100
      2 C11         76.6330    31.8290    -0.7350 c          1 V1P       0.671100
      3 C12         77.8420    31.0720    -0.2530 cy         1 V1P      -0.196700
      4 C15         78.9990    31.9760     0.2240 cy         1 V1P       0.167300
      5 N4          79.6770    31.7790    -1.0550 nq         1 V1P      -0.691600
      6 C14         81.0980    31.5600    -1.0390 c3         1 V1P       0.150100
      7 C13         78.8130    30.6450    -1.3730 cy         1 V1P       0.167300
      8 N3          75.4570    31.4210    -0.2220 ns         1 V1P      -0.599900
      9 C10         74.1920    32.0330    -0.5830 c3         1 V1P       0.183000
     10 C16         73.0580    31.1450    -0.0590 c3         1 V1P      -0.082400
     11 C17         71.6660    31.6010    -0.4700 c3         1 V1P      -0.075400
     12 C18         70.5880    30.6540     0.0420 c3         1 V1P      -0.076400
     13 C19         69.1830    31.0620    -0.3870 c3         1 V1P      -0.069400
     14 C20         68.1280    30.0920     0.1320 c3         1 V1P      -0.139400
     15 C21         66.6890    30.4210    -0.2830 c3         1 V1P       0.367600
     16 O3          66.3040    31.6940     0.1660 oh         1 V1P      -0.579300
     17 C22         65.6980    29.3490     0.1980 c3         1 V1P      -0.134400
     18 C23         65.5910    29.1960     1.7090 c3         1 V1P      -0.089100
     19 O2          66.5870    30.5570    -1.6790 oh         1 V1P      -0.579300
     20 C9          74.1120    33.4230    -0.0300 cc         1 V1P      -0.134900
     21 C1          73.6350    34.6210    -0.5070 cd         1 V1P       0.257800
     22 C           73.0630    34.9080    -1.8330 c          1 V1P       0.615600
     23 N           72.7350    36.1940    -2.0260 nt         1 V1P      -0.660000
     24 O           72.9060    34.0360    -2.6820 o          1 V1P      -0.627100
     25 N2          74.5350    33.7050     1.2290 na         1 V1P      -0.286900
     26 C2          74.3210    35.0230     1.4800 cc         1 V1P       0.465000
     27 N1          73.7760    35.5960     0.4400 nd         1 V1P      -0.670000
     28 C3          74.6670    35.6860     2.7350 ca         1 V1P      -0.119500
     29 C8          74.5300    37.0720     2.8330 ca         1 V1P      -0.108000
     30 C7          74.8530    37.7270     4.0090 ca         1 V1P      -0.128000
     31 C6          75.3180    37.0110     5.1060 ca         1 V1P      -0.119000
     32 C5          75.4540    35.6330     5.0170 ca         1 V1P      -0.128000
     33 C4          75.1300    34.9720     3.8410 ca         1 V1P      -0.108000
     34 H1          77.5720    30.2770     0.4420 hc         1 V1P       0.058700
     35 H2          79.5250    31.5260     1.0750 h1         1 V1P       0.053450
     36 H3          78.7620    33.0130     0.4720 h1         1 V1P       0.053450
     37 H5          81.6140    32.4630    -0.7100 h1         1 V1P       0.033033
     38 H6          81.4020    30.7360    -0.3740 h1         1 V1P       0.033033
     39 H7          81.4520    31.3260    -2.0440 h1         1 V1P       0.033033
     40 H8          78.4270    30.6240    -2.3950 h1         1 V1P       0.053450
     41 H9          79.2640    29.6700    -1.1500 h1         1 V1P       0.053450
     42 H10         75.4420    30.6340     0.4080 hn         1 V1P       0.308500
     43 H11         74.1150    32.1010    -1.6680 h1         1 V1P       0.118700
     44 H12         73.1210    31.0840     1.0330 hc         1 V1P       0.037200
     45 H13         73.2300    30.1330    -0.4370 hc         1 V1P       0.037200
     46 H14         71.4740    32.6090    -0.0910 hc         1 V1P       0.061200
     47 H15         71.6120    31.6680    -1.5600 hc         1 V1P       0.061200
     48 H16         70.6380    30.6050     1.1350 hc         1 V1P       0.030700
     49 H17         70.7950    29.6400    -0.3170 hc         1 V1P       0.030700
     50 H18         68.9740    32.0720    -0.0240 hc         1 V1P       0.056200
     51 H19         69.1390    31.1100    -1.4780 hc         1 V1P       0.056200
     52 H20         68.3640    29.0780    -0.2100 hc         1 V1P       0.041700
     53 H21         68.1890    30.0500     1.2250 hc         1 V1P       0.041700
     54 H22         66.5680    31.7990     1.0850 ho         1 V1P       0.414000
     55 H23         64.7150    29.6010    -0.2090 hc         1 V1P       0.053700
     56 H24         65.9810    28.3870    -0.2410 hc         1 V1P       0.053700
     57 H25         64.8280    28.4590     1.9610 hc         1 V1P       0.034700
     58 H26         66.5240    28.8590     2.1620 hc         1 V1P       0.034700
     59 H27         65.3010    30.1310     2.1930 hc         1 V1P       0.034700
     60 H28         66.8070    29.7130    -2.0860 ho         1 V1P       0.414000
     61 H29         72.3470    36.4960    -2.9030 hn         1 V1P       0.323000
     62 H30         72.9030    36.8820    -1.3110 hn         1 V1P       0.323000
     63 H31         74.9740    33.0390     1.8460 hn         1 V1P       0.301700
     64 H33         74.1710    37.6330     1.9800 ha         1 V1P       0.136000
     65 H34         74.7440    38.8020     4.0700 ha         1 V1P       0.133500
     66 H35         75.5740    37.5240     6.0240 ha         1 V1P       0.133000
     67 H36         75.8110    35.0660     5.8660 ha         1 V1P       0.133500
     68 H37         75.2370    33.8950     3.8070 ha         1 V1P       0.136000
@<TRIPOS>BOND
     1     1     2 2   
     2     2     3 1   
     3     2     8 1   
     4     3     4 1   
     5     3     7 1   
     6     3    34 1   
     7     4     5 1   
     8     4    35 1   
     9     4    36 1   
    10     5     6 1   
    11     5     7 1   
    12     6    37 1   
    13     6    38 1   
    14     6    39 1   
    15     7    40 1   
    16     7    41 1   
    17     8     9 1   
    18     8    42 1   
    19     9    10 1   
    20     9    20 1   
    21     9    43 1   
    22    10    11 1   
    23    10    44 1   
    24    10    45 1   
    25    11    12 1   
    26    11    46 1   
    27    11    47 1   
    28    12    13 1   
    29    12    48 1   
    30    12    49 1   
    31    13    14 1   
    32    13    50 1   
    33    13    51 1   
    34    14    15 1   
    35    14    52 1   
    36    14    53 1   
    37    15    16 1   
    38    15    17 1   
    39    15    19 1   
    40    16    54 1   
    41    17    18 1   
    42    17    55 1   
    43    17    56 1   
    44    18    57 1   
    45    18    58 1   
    46    18    59 1   
    47    19    60 1   
    48    20    21 2   
    49    20    25 1   
    50    21    22 1   
    51    21    27 1   
    52    22    23 1   
    53    22    24 2   
    54    23    61 1   
    55    23    62 1   
    56    25    26 1   
    57    25    63 1   
    58    26    27 2   
    59    26    28 1   
    60    28    29 ar  
    61    28    33 ar  
    62    29    30 ar  
    63    29    64 1   
    64    30    31 ar  
    65    30    65 1   
    66    31    32 ar  
    67    31    66 1   
    68    32    33 ar  
    69    32    67 1   
    70    33    68 1   
@<TRIPOS>SUBSTRUCTURE
     1 V1P         1 TEMP              0 ****  ****    0 ROOT
