@<TRIPOS>MOLECULE
V1P
   68    70     1     0     0
SMALL
No Charge or Current Charge


@<TRIPOS>ATOM
      1 O1          76.7030    32.1610    -2.1370 o          1 V1P      -0.551100
      2 C11         76.7540    31.4020    -1.1750 c          1 V1P       0.604100
      3 C12         77.8900    30.4780    -0.5560 cy         1 V1P      -0.196700
      4 C15         78.2720    31.4180     0.6490 cy         1 V1P       0.167300
      5 N4          79.0960    32.2160    -0.3140 nq         1 V1P      -0.691600
      6 C14         80.3000    32.9340     0.1090 c3         1 V1P       0.150100
      7 C13         79.1390    31.0810    -1.2960 cy         1 V1P       0.167300
      8 N3          75.5840    31.1550    -0.4820 ns         1 V1P      -0.532900
      9 C10         74.2950    31.7930    -0.7590 c3         1 V1P       0.183000
     10 C16         73.1510    30.9140    -0.2030 c3         1 V1P      -0.082400
     11 C17         71.7340    31.4360    -0.5400 c3         1 V1P      -0.075400
     12 C18         70.6120    30.5230     0.0000 c3         1 V1P      -0.076400
     13 C19         69.1950    31.0420    -0.3330 c3         1 V1P      -0.069400
     14 C20         68.0740    30.1150     0.2120 c3         1 V1P      -0.139400
     15 C21         66.6130    30.5550    -0.0860 c3         1 V1P       0.414000
     16 O3          66.3570    31.8040     0.5070 oh         1 V1P      -0.641500
     17 C22         65.5440    29.5320     0.3810 c3         1 V1P      -0.134400
     18 C23         65.5330    29.2140     1.8960 c3         1 V1P      -0.089100
     19 O2          66.4550    30.7630    -1.4680 oh         1 V1P      -0.641500
     20 C9          74.2670    33.1980    -0.1940 cc         1 V1P      -0.120300
     21 C1          73.8620    34.4030    -0.7440 cd         1 V1P       0.192500
     22 C           73.2930    34.5570    -2.1400 c          1 V1P       0.548600
     23 N           72.9690    35.8280    -2.4760 nt         1 V1P      -0.593000
     24 O           73.1050    33.6630    -2.9520 o          1 V1P      -0.627100
     25 N2          74.6940    33.5110     1.0820 na         1 V1P      -0.286500
     26 C2          74.5590    34.8610     1.2700 cc         1 V1P       0.465000
     27 N1          74.0540    35.4250     0.1860 nd         1 V1P      -0.670000
     28 C3          74.9250    35.5690     2.5080 ca         1 V1P      -0.119500
     29 C8          74.7330    36.9660     2.6170 ca         1 V1P      -0.090000
     30 C7          75.0810    37.6510     3.7940 ca         1 V1P      -0.110000
     31 C6          75.6260    36.9510     4.8810 ca         1 V1P      -0.101000
     32 C5          75.8240    35.5650     4.7890 ca         1 V1P      -0.110000
     33 C4          75.4770    34.8770     3.6130 ca         1 V1P      -0.090000
     34 H1          77.7090    29.4050    -0.4530 hc         1 V1P       0.058700
     35 H2          78.8610    30.8950     1.4120 h1         1 V1P       0.053450
     36 H3          77.4530    31.9580     1.1390 h1         1 V1P       0.053450
     37 H5          80.0340    33.6980     0.8520 h1         1 V1P       0.033033
     38 H6          81.0180    32.2320     0.5550 h1         1 V1P       0.033033
     39 H7          80.7640    33.4220    -0.7570 h1         1 V1P       0.033033
     40 H8          79.0120    31.3400    -2.3540 h1         1 V1P       0.053450
     41 H9          80.0250    30.4420    -1.1950 h1         1 V1P       0.053450
     42 H10         75.6330    30.4740     0.2650 hn         1 V1P       0.308500
     43 H11         74.1800    31.8310    -1.8500 h1         1 V1P       0.118700
     44 H12         73.2540    30.8310     0.8860 hc         1 V1P       0.037200
     45 H13         73.2570    29.9000    -0.6090 hc         1 V1P       0.037200
     46 H14         71.6050    32.4420    -0.1220 hc         1 V1P       0.061200
     47 H15         71.6320    31.5260    -1.6290 hc         1 V1P       0.061200
     48 H16         70.7150    30.4320     1.0890 hc         1 V1P       0.030700
     49 H17         70.7340    29.5160    -0.4190 hc         1 V1P       0.030700
     50 H18         69.0830    32.0500     0.0840 hc         1 V1P       0.056200
     51 H19         69.1010    31.1330    -1.4230 hc         1 V1P       0.056200
     52 H20         68.2230    29.1100    -0.2020 hc         1 V1P       0.041700
     53 H21         68.2050    30.0220     1.2960 hc         1 V1P       0.041700
     54 H22         67.1940    32.3010     0.4240 ho         1 V1P       0.453000
     55 H23         64.5480    29.9020     0.1050 hc         1 V1P       0.053700
     56 H24         65.6880    28.5930    -0.1670 hc         1 V1P       0.053700
     57 H25         64.7060    28.5350     2.1340 hc         1 V1P       0.034700
     58 H26         66.4640    28.7270     2.2070 hc         1 V1P       0.034700
     59 H27         65.4020    30.1270     2.4900 hc         1 V1P       0.034700
     60 H28         65.4910    30.7310    -1.6260 ho         1 V1P       0.453000
     61 H29         72.5820    36.0240    -3.3860 hn         1 V1P       0.323000
     62 H30         73.1220    36.5670    -1.8030 hn         1 V1P       0.323000
     63 H31         75.0540    32.8650     1.7680 hn         1 V1P       0.352000
     64 H33         74.3110    37.5290     1.7860 ha         1 V1P       0.118000
     65 H34         74.9260    38.7260     3.8620 ha         1 V1P       0.115500
     66 H35         75.8950    37.4820     5.7920 ha         1 V1P       0.115000
     67 H36         76.2480    35.0210     5.6300 ha         1 V1P       0.115500
     68 H37         75.6440    33.8040     3.5720 ha         1 V1P       0.118000
@<TRIPOS>BOND
     1     1     2 2   
     2     2     3 1   
     3     2     8 1   
     4     3     4 1   
     5     3     7 1   
     6     3    34 1   
     7     4     5 1   
     8     4    35 1   
     9     4    36 1   
    10     5     6 1   
    11     5     7 1   
    12     6    37 1   
    13     6    38 1   
    14     6    39 1   
    15     7    40 1   
    16     7    41 1   
    17     8     9 1   
    18     8    42 1   
    19     9    10 1   
    20     9    20 1   
    21     9    43 1   
    22    10    11 1   
    23    10    44 1   
    24    10    45 1   
    25    11    12 1   
    26    11    46 1   
    27    11    47 1   
    28    12    13 1   
    29    12    48 1   
    30    12    49 1   
    31    13    14 1   
    32    13    50 1   
    33    13    51 1   
    34    14    15 1   
    35    14    52 1   
    36    14    53 1   
    37    15    16 1   
    38    15    17 1   
    39    15    19 1   
    40    16    54 1   
    41    17    18 1   
    42    17    55 1   
    43    17    56 1   
    44    18    57 1   
    45    18    58 1   
    46    18    59 1   
    47    19    60 1   
    48    20    21 2   
    49    20    25 1   
    50    21    22 1   
    51    21    27 1   
    52    22    23 1   
    53    22    24 2   
    54    23    61 1   
    55    23    62 1   
    56    25    26 1   
    57    25    63 1   
    58    26    27 2   
    59    26    28 1   
    60    28    29 ar  
    61    28    33 ar  
    62    29    30 ar  
    63    29    64 1   
    64    30    31 ar  
    65    30    65 1   
    66    31    32 ar  
    67    31    66 1   
    68    32    33 ar  
    69    32    67 1   
    70    33    68 1   
@<TRIPOS>SUBSTRUCTURE
     1 V1P         1 TEMP              0 ****  ****    0 ROOT
