@<TRIPOS>MOLECULE
V1Q
   30    31     1     0     0
SMALL
bcc


@<TRIPOS>ATOM
      1 C01         14.3140    17.5510     2.5470 c3         1 V1Q       0.044600
      2 C03         13.1430    18.8290     0.7420 cc         1 V1Q      -0.131300
      3 C04         13.5650    19.6350    -0.2890 cd         1 V1Q      -0.307300
      4 C05         14.9640    19.6150    -0.1750 cd         1 V1Q       0.495200
      5 C09         17.3930    21.4470     0.9080 ca         1 V1Q      -0.267500
      6 C10         18.6040    20.7810     0.7540 ca         1 V1Q      -0.015500
      7 C11         19.3880    20.5470     1.8670 ca         1 V1Q      -0.154000
      8 C12         18.9840    20.9710     3.1350 ca         1 V1Q      -0.019300
      9 C13         19.8460    20.7050     4.3310 c3         1 V1Q      -0.057800
     10 C14         17.7670    21.6330     3.2600 ca         1 V1Q      -0.154000
     11 C15         16.9650    21.8760     2.1530 ca         1 V1Q      -0.015500
     12 N02         14.2470    18.4070     1.3860 na         1 V1Q       0.118400
     13 N06         15.9250    20.2560    -0.9760 nu         1 V1Q      -0.774800
     14 N17         15.3610    18.8640     0.8370 nc         1 V1Q      -0.500800
     15 O08         15.3060    22.6270    -0.1310 o          1 V1Q      -0.613300
     16 O16         17.2970    22.2340    -1.6000 o          1 V1Q      -0.613300
     17 S07         16.4260    21.7870    -0.5250 sy         1 V1Q       1.286200
     18 H1          14.8310    18.0590     3.3580 h1         1 V1Q       0.059033
     19 H2          13.3040    17.3110     2.8660 h1         1 V1Q       0.059033
     20 H3          14.8390    16.6280     2.3090 h1         1 V1Q       0.059033
     21 H4          12.1550    18.5370     1.0600 h4         1 V1Q       0.175000
     22 H5          12.9620    20.1540    -1.0150 ha         1 V1Q       0.173000
     23 H6          18.9340    20.4460    -0.2210 ha         1 V1Q       0.153000
     24 H7          20.3330    20.0320     1.7500 ha         1 V1Q       0.133000
     25 H8          20.8850    20.9680     4.1350 hc         1 V1Q       0.047367
     26 H9          19.5100    21.2670     5.2010 hc         1 V1Q       0.047367
     27 H10         19.8270    19.6450     4.5920 hc         1 V1Q       0.047367
     28 H11         17.4360    21.9710     4.2340 ha         1 V1Q       0.133000
     29 H12         16.0240    22.3940     2.2700 ha         1 V1Q       0.153000
     30 H13         15.7420    20.2200    -1.9750 hn         1 V1Q       0.439800
@<TRIPOS>BOND
     1     1    12 1   
     2     1    18 1   
     3     1    19 1   
     4     1    20 1   
     5     2     3 2   
     6     2    12 1   
     7     2    21 1   
     8     3     4 1   
     9     3    22 1   
    10     4    13 1   
    11     4    14 2   
    12     5     6 ar  
    13     5    11 ar  
    14     5    17 1   
    15     6     7 ar  
    16     6    23 1   
    17     7     8 ar  
    18     7    24 1   
    19     8     9 1   
    20     8    10 ar  
    21     9    25 1   
    22     9    26 1   
    23     9    27 1   
    24    10    11 ar  
    25    10    28 1   
    26    11    29 1   
    27    12    14 1   
    28    13    17 1   
    29    13    30 1   
    30    15    17 2   
    31    16    17 2   
@<TRIPOS>SUBSTRUCTURE
     1 V1Q         1 TEMP              0 ****  ****    0 ROOT
