@<TRIPOS>MOLECULE
V1Q
   30    31     1     0     0
SMALL
No Charge or Current Charge


@<TRIPOS>ATOM
      1 C01         13.5500    18.1450     2.7650 c3         1 V1Q       0.073900
      2 C03         13.1570    18.2340     0.2410 cc         1 V1Q      -0.164000
      3 C04         13.8160    18.9120    -0.7460 cd         1 V1Q      -0.224000
      4 C05         14.8350    19.6440    -0.1210 cd         1 V1Q       0.429900
      5 C09         17.4840    21.5040     1.0470 ca         1 V1Q      -0.267500
      6 C10         18.7850    21.0770     0.7190 ca         1 V1Q       0.002500
      7 C11         19.7050    20.7800     1.7400 ca         1 V1Q      -0.136000
      8 C12         19.3360    20.9050     3.0920 ca         1 V1Q      -0.019300
      9 C13         20.3330    20.5780     4.1930 c3         1 V1Q      -0.057800
     10 C14         18.0330    21.3260     3.4150 ca         1 V1Q      -0.136000
     11 C15         17.1080    21.6260     2.4000 ca         1 V1Q       0.002500
     12 N02         13.8430    18.6010     1.4000 na         1 V1Q       0.139800
     13 N06         15.7170    20.4080    -0.8020 nu         1 V1Q      -0.830000
     14 N17         14.8930    19.4700     1.1750 nc         1 V1Q      -0.500800
     15 O08         15.1330    22.5730     0.2780 o          1 V1Q      -0.542500
     16 O16         17.0230    22.3780    -1.4400 o          1 V1Q      -0.542500
     17 S07         16.3070    21.8800    -0.2620 sy         1 V1Q       1.144600
     18 H1          13.3210    19.0100     3.3990 h1         1 V1Q       0.059033
     19 H2          12.6880    17.4670     2.7530 h1         1 V1Q       0.059033
     20 H3          14.4210    17.6170     3.1700 h1         1 V1Q       0.059033
     21 H4          12.3130    17.5550     0.2260 h4         1 V1Q       0.157000
     22 H5          13.5940    18.8860    -1.8070 ha         1 V1Q       0.155000
     23 H6          19.0860    20.9710    -0.3220 ha         1 V1Q       0.135000
     24 H7          20.7070    20.4490     1.4770 ha         1 V1Q       0.115000
     25 H8          21.3620    20.7780     3.8730 hc         1 V1Q       0.047367
     26 H9          20.1460    21.1780     5.0920 hc         1 V1Q       0.047367
     27 H10         20.2680    19.5210     4.4750 hc         1 V1Q       0.047367
     28 H11         17.7330    21.4200     4.4560 ha         1 V1Q       0.115000
     29 H12         16.1020    21.9440     2.6690 ha         1 V1Q       0.135000
     30 H13         15.4740    20.5610    -1.7670 hn         1 V1Q       0.495000
@<TRIPOS>BOND
     1     1    12 1   
     2     1    18 1   
     3     1    19 1   
     4     1    20 1   
     5     2     3 2   
     6     2    12 1   
     7     2    21 1   
     8     3     4 1   
     9     3    22 1   
    10     4    13 1   
    11     4    14 2   
    12     5     6 ar  
    13     5    11 ar  
    14     5    17 1   
    15     6     7 ar  
    16     6    23 1   
    17     7     8 ar  
    18     7    24 1   
    19     8     9 1   
    20     8    10 ar  
    21     9    25 1   
    22     9    26 1   
    23     9    27 1   
    24    10    11 ar  
    25    10    28 1   
    26    11    29 1   
    27    12    14 1   
    28    13    17 1   
    29    13    30 1   
    30    15    17 2   
    31    16    17 2   
@<TRIPOS>SUBSTRUCTURE
     1 V1Q         1 TEMP              0 ****  ****    0 ROOT
