@<TRIPOS>MOLECULE
V1S
   75    78     1     0     0
SMALL
bcc


@<TRIPOS>ATOM
      1 N4          74.2630    35.7210    -3.1130 n1         1 V1S      -0.331800
      2 C27         74.2920    35.3900    -2.0080 cg         1 V1S       0.259800
      3 C26         74.3150    34.9790    -0.6650 cc         1 V1S      -0.125600
      4 N3          74.3350    35.8460     0.3970 na         1 V1S      -0.265900
      5 C19         74.3760    35.1040     1.5180 cc         1 V1S       0.482000
      6 C20         74.4330    35.6430     2.8710 ca         1 V1S      -0.147500
      7 C25         74.5270    34.7560     3.9440 ca         1 V1S      -0.079000
      8 C24         74.5930    35.2190     5.2450 ca         1 V1S      -0.172000
      9 C23         74.5620    36.5840     5.4650 ca         1 V1S       0.150900
     10 F           74.6210    37.0400     6.7230 f          1 V1S      -0.136900
     11 C22         74.4710    37.4920     4.4280 ca         1 V1S      -0.172000
     12 C21         74.4060    37.0130     3.1300 ca         1 V1S      -0.079000
     13 N2          74.3760    33.8170     1.2270 nd         1 V1S      -0.684000
     14 C18         74.3430    33.7170    -0.1170 cd         1 V1S       0.347600
     15 C8          74.4190    32.3930    -0.8160 c3         1 V1S       0.094400
     16 C7          73.4010    31.3970    -0.2700 c3         1 V1S      -0.081400
     17 C6          71.9600    31.7930    -0.5550 c3         1 V1S      -0.071400
     18 C5          70.9680    30.7860     0.0140 c3         1 V1S      -0.076400
     19 C4          69.5180    31.1150    -0.3230 c3         1 V1S      -0.069400
     20 C3          68.5540    30.1000     0.2810 c3         1 V1S      -0.139400
     21 C2          67.0750    30.3350    -0.0500 c3         1 V1S       0.366600
     22 O1          66.8760    30.4130    -1.4400 oh         1 V1S      -0.581800
     23 O           66.6480    31.5990     0.3870 oh         1 V1S      -0.581800
     24 C1          66.1780    29.2320     0.5340 c3         1 V1S      -0.132400
     25 C           66.2060    29.1150     2.0520 c3         1 V1S      -0.088100
     26 N           75.7570    31.8490    -0.6700 ns         1 V1S      -0.564900
     27 C9          76.8230    32.3800    -1.3080 c          1 V1S       0.702100
     28 O2          76.7030    33.2460    -2.1630 o          1 V1S      -0.603100
     29 C10         78.1310    31.8240    -0.8700 cx         1 V1S      -0.242700
     30 C12         79.1760    32.7250    -0.2290 cx         1 V1S      -0.077000
     31 C11         79.3920    32.1940    -1.5980 cx         1 V1S      -0.078400
     32 C17         78.8810    34.1850     0.0130 c6         1 V1S      -0.051400
     33 C16         78.1600    34.3640     1.3420 c6         1 V1S       0.168300
     34 N1          78.9130    33.7780     2.4370 n3         1 V1S      -0.717600
     35 C15         78.2690    34.0220     3.7060 c3         1 V1S       0.154100
     36 C14         79.1610    32.3640     2.2300 c6         1 V1S       0.168300
     37 C13         79.9250    32.1220     0.9370 c6         1 V1S      -0.051400
     38 H1          74.3260    36.8530     0.3270 hn         1 V1S       0.316700
     39 H2          74.5530    33.6910     3.7590 ha         1 V1S       0.144000
     40 H3          74.6670    34.5290     6.0750 ha         1 V1S       0.155500
     41 H4          74.4500    38.5550     4.6250 ha         1 V1S       0.155500
     42 H5          74.3360    37.7350     2.3270 ha         1 V1S       0.144000
     43 H7          74.2280    32.5460    -1.8820 h1         1 V1S       0.085700
     44 H8          73.5490    31.2840     0.8080 hc         1 V1S       0.051200
     45 H9          73.6070    30.4220    -0.7210 hc         1 V1S       0.051200
     46 H10         71.8160    31.8790    -1.6370 hc         1 V1S       0.046200
     47 H11         71.7500    32.7830    -0.1380 hc         1 V1S       0.046200
     48 H12         71.0890    30.7350     1.1010 hc         1 V1S       0.035200
     49 H13         71.2090    29.7880    -0.3650 hc         1 V1S       0.035200
     50 H14         69.2820    32.1190     0.0410 hc         1 V1S       0.052200
     51 H15         69.3980    31.1430    -1.4090 hc         1 V1S       0.052200
     52 H16         68.8260    29.0930    -0.0540 hc         1 V1S       0.044200
     53 H17         68.6820    30.0880     1.3690 hc         1 V1S       0.044200
     54 H18         67.0420    29.5450    -1.8210 ho         1 V1S       0.413500
     55 H19         67.0640    31.8020     1.2310 ho         1 V1S       0.413500
     56 H20         65.1530    29.4290     0.2050 hc         1 V1S       0.053700
     57 H21         66.4680    28.2720     0.0940 hc         1 V1S       0.053700
     58 H22         65.4820    28.3720     2.3870 hc         1 V1S       0.035033
     59 H23         67.1820    28.8030     2.4260 hc         1 V1S       0.035033
     60 H24         65.9460    30.0580     2.5360 hc         1 V1S       0.035033
     61 H25         75.9210    31.2330     0.1110 hn         1 V1S       0.314500
     62 H26         78.0790    30.8220    -0.4550 hc         1 V1S       0.084700
     63 H27         80.1280    31.4130    -1.7460 hc         1 V1S       0.084200
     64 H28         79.2920    32.8800    -2.4310 hc         1 V1S       0.084200
     65 H29         79.8270    34.7360     0.0380 hc         1 V1S       0.057450
     66 H30         78.2830    34.6190    -0.7870 hc         1 V1S       0.057450
     67 H31         78.0280    35.4310     1.5450 h1         1 V1S       0.031200
     68 H32         77.1470    33.9320     1.2700 h1         1 V1S       0.031200
     69 H34         78.8800    33.6280     4.5200 h1         1 V1S       0.029033
     70 H35         78.1490    35.0950     3.8660 h1         1 V1S       0.029033
     71 H36         77.2690    33.5650     3.7840 h1         1 V1S       0.029033
     72 H37         78.2210    31.7820     2.2070 h1         1 V1S       0.031200
     73 H38         79.7380    31.9850     3.0770 h1         1 V1S       0.031200
     74 H39         80.0730    31.0490     0.7930 hc         1 V1S       0.057450
     75 H40         80.9170    32.5780     1.0070 hc         1 V1S       0.057450
@<TRIPOS>BOND
     1     1     2 3   
     2     2     3 1   
     3     3     4 1   
     4     3    14 2   
     5     4     5 1   
     6     4    38 1   
     7     5     6 1   
     8     5    13 2   
     9     6     7 ar  
    10     6    12 ar  
    11     7     8 ar  
    12     7    39 1   
    13     8     9 ar  
    14     8    40 1   
    15     9    10 1   
    16     9    11 ar  
    17    11    12 ar  
    18    11    41 1   
    19    12    42 1   
    20    13    14 1   
    21    14    15 1   
    22    15    16 1   
    23    15    26 1   
    24    15    43 1   
    25    16    17 1   
    26    16    44 1   
    27    16    45 1   
    28    17    18 1   
    29    17    46 1   
    30    17    47 1   
    31    18    19 1   
    32    18    48 1   
    33    18    49 1   
    34    19    20 1   
    35    19    50 1   
    36    19    51 1   
    37    20    21 1   
    38    20    52 1   
    39    20    53 1   
    40    21    22 1   
    41    21    23 1   
    42    21    24 1   
    43    22    54 1   
    44    23    55 1   
    45    24    25 1   
    46    24    56 1   
    47    24    57 1   
    48    25    58 1   
    49    25    59 1   
    50    25    60 1   
    51    26    27 1   
    52    26    61 1   
    53    27    28 2   
    54    27    29 1   
    55    29    30 1   
    56    29    31 1   
    57    29    62 1   
    58    30    31 1   
    59    30    32 1   
    60    30    37 1   
    61    31    63 1   
    62    31    64 1   
    63    32    33 1   
    64    32    65 1   
    65    32    66 1   
    66    33    34 1   
    67    33    67 1   
    68    33    68 1   
    69    34    35 1   
    70    34    36 1   
    71    35    69 1   
    72    35    70 1   
    73    35    71 1   
    74    36    37 1   
    75    36    72 1   
    76    36    73 1   
    77    37    74 1   
    78    37    75 1   
@<TRIPOS>SUBSTRUCTURE
     1 V1S         1 TEMP              0 ****  ****    0 ROOT
