@<TRIPOS>MOLECULE
V1S
   75    78     1     0     0
SMALL
No Charge or Current Charge


@<TRIPOS>ATOM
      1 N4          72.7270    35.4990    -2.1700 n1         1 V1S      -0.421000
      2 C27         73.1660    35.2690    -1.1140 cg         1 V1S       0.349000
      3 C26         73.6990    34.9560     0.1660 cc         1 V1S      -0.111000
      4 N3          73.7740    35.8050     1.2520 na         1 V1S      -0.265500
      5 C19         74.3750    35.1190     2.2800 cc         1 V1S       0.482000
      6 C20         74.6780    35.6880     3.6020 ca         1 V1S      -0.147500
      7 C25         75.2810    34.8840     4.5990 ca         1 V1S      -0.061000
      8 C24         75.5920    35.4200     5.8610 ca         1 V1S      -0.154000
      9 C23         75.3060    36.7620     6.1410 ca         1 V1S       0.186000
     10 F           75.6050    37.2760     7.3530 f          1 V1S      -0.172000
     11 C22         74.7100    37.5740     5.1660 ca         1 V1S      -0.154000
     12 C21         74.3980    37.0430     3.9010 ca         1 V1S      -0.061000
     13 N2          74.6690    33.8850     1.9020 nd         1 V1S      -0.684000
     14 C18         74.2530    33.7730     0.5860 cd         1 V1S       0.282300
     15 C8          74.4810    32.5000    -0.2150 c3         1 V1S       0.094400
     16 C7          73.4210    31.4090     0.0680 c3         1 V1S      -0.081400
     17 C6          71.9780    31.8290    -0.2980 c3         1 V1S      -0.071400
     18 C5          70.9450    30.7070    -0.0590 c3         1 V1S      -0.076400
     19 C4          69.5030    31.1250    -0.4210 c3         1 V1S      -0.069400
     20 C3          68.4710    29.9890    -0.1800 c3         1 V1S      -0.139400
     21 C2          66.9930    30.3190    -0.5270 c3         1 V1S       0.413000
     22 O1          66.9110    30.7830    -1.8520 oh         1 V1S      -0.644000
     23 O           66.5400    31.3880     0.2670 oh         1 V1S      -0.644000
     24 C1          66.0280    29.1130    -0.3700 c3         1 V1S      -0.132400
     25 C           65.9460    28.4970     1.0490 c3         1 V1S      -0.088100
     26 N           75.8300    31.9870     0.0430 ns         1 V1S      -0.497900
     27 C9          76.6350    31.3540    -0.8670 c          1 V1S       0.635100
     28 O2          76.2720    31.0640    -1.9970 o          1 V1S      -0.603100
     29 C10         78.0120    31.0590    -0.3300 cx         1 V1S      -0.242700
     30 C12         79.0360    32.1800    -0.2360 cx         1 V1S      -0.077000
     31 C11         79.2110    31.0840    -1.2630 cx         1 V1S      -0.078400
     32 C17         78.7280    33.6120    -0.7260 c6         1 V1S      -0.051400
     33 C16         78.1970    34.5160     0.4170 c6         1 V1S       0.168300
     34 N1          79.1120    34.5280     1.5910 n3         1 V1S      -0.717600
     35 C15         78.6360    35.4350     2.6570 c3         1 V1S       0.154100
     36 C14         79.3680    33.1500     2.0980 c6         1 V1S       0.168300
     37 C13         79.9580    32.2350     0.9950 c6         1 V1S      -0.051400
     38 H1          73.4580    36.7640     1.2940 hn         1 V1S       0.367000
     39 H2          75.5140    33.8400     4.3980 ha         1 V1S       0.126000
     40 H3          76.0550    34.7950     6.6200 ha         1 V1S       0.137500
     41 H4          74.4930    38.6150     5.3900 ha         1 V1S       0.137500
     42 H5          73.9410    37.6970     3.1620 ha         1 V1S       0.126000
     43 H7          74.4220    32.7610    -1.2800 h1         1 V1S       0.085700
     44 H8          73.4610    31.1350     1.1300 hc         1 V1S       0.051200
     45 H9          73.6810    30.5080    -0.5020 hc         1 V1S       0.051200
     46 H10         71.9470    32.1290    -1.3530 hc         1 V1S       0.046200
     47 H11         71.6910    32.7070     0.2950 hc         1 V1S       0.046200
     48 H12         70.9790    30.4050     0.9960 hc         1 V1S       0.035200
     49 H13         71.2250    29.8280    -0.6520 hc         1 V1S       0.035200
     50 H14         69.2330    32.0070     0.1730 hc         1 V1S       0.052200
     51 H15         69.4780    31.4280    -1.4750 hc         1 V1S       0.052200
     52 H16         68.7760    29.1120    -0.7660 hc         1 V1S       0.044200
     53 H17         68.5320    29.6900     0.8730 hc         1 V1S       0.044200
     54 H18         65.9720    30.6810    -2.1050 ho         1 V1S       0.452500
     55 H19         67.3130    31.9780     0.3600 ho         1 V1S       0.452500
     56 H20         65.0170    29.4210    -0.6650 hc         1 V1S       0.053700
     57 H21         66.3280    28.3250    -1.0710 hc         1 V1S       0.053700
     58 H22         65.1940    27.6990     1.0710 hc         1 V1S       0.035033
     59 H23         66.9060    28.0600     1.3480 hc         1 V1S       0.035033
     60 H24         65.6600    29.2520     1.7910 hc         1 V1S       0.035033
     61 H25         76.2400    32.1850     0.9470 hn         1 V1S       0.314500
     62 H26         78.0300    30.3030     0.4510 hc         1 V1S       0.084700
     63 H27         79.9980    30.3520    -1.0980 hc         1 V1S       0.084200
     64 H28         79.0430    31.3340    -2.3090 hc         1 V1S       0.084200
     65 H29         79.6500    34.0520    -1.1310 hc         1 V1S       0.057450
     66 H30         78.0080    33.5990    -1.5540 hc         1 V1S       0.057450
     67 H31         78.0670    35.5360     0.0270 h1         1 V1S       0.031200
     68 H32         77.2020    34.1640     0.7220 h1         1 V1S       0.031200
     69 H34         79.3550    35.4730     3.4850 h1         1 V1S       0.029033
     70 H35         78.5100    36.4560     2.2700 h1         1 V1S       0.029033
     71 H36         77.6700    35.0980     3.0540 h1         1 V1S       0.029033
     72 H37         78.4340    32.7030     2.4700 h1         1 V1S       0.031200
     73 H38         80.0710    33.1800     2.9430 h1         1 V1S       0.031200
     74 H39         80.1200    31.2260     1.3990 hc         1 V1S       0.057450
     75 H40         80.9440    32.6120     0.6930 hc         1 V1S       0.057450
@<TRIPOS>BOND
     1     1     2 3   
     2     2     3 1   
     3     3     4 1   
     4     3    14 2   
     5     4     5 1   
     6     4    38 1   
     7     5     6 1   
     8     5    13 2   
     9     6     7 ar  
    10     6    12 ar  
    11     7     8 ar  
    12     7    39 1   
    13     8     9 ar  
    14     8    40 1   
    15     9    10 1   
    16     9    11 ar  
    17    11    12 ar  
    18    11    41 1   
    19    12    42 1   
    20    13    14 1   
    21    14    15 1   
    22    15    16 1   
    23    15    26 1   
    24    15    43 1   
    25    16    17 1   
    26    16    44 1   
    27    16    45 1   
    28    17    18 1   
    29    17    46 1   
    30    17    47 1   
    31    18    19 1   
    32    18    48 1   
    33    18    49 1   
    34    19    20 1   
    35    19    50 1   
    36    19    51 1   
    37    20    21 1   
    38    20    52 1   
    39    20    53 1   
    40    21    22 1   
    41    21    23 1   
    42    21    24 1   
    43    22    54 1   
    44    23    55 1   
    45    24    25 1   
    46    24    56 1   
    47    24    57 1   
    48    25    58 1   
    49    25    59 1   
    50    25    60 1   
    51    26    27 1   
    52    26    61 1   
    53    27    28 2   
    54    27    29 1   
    55    29    30 1   
    56    29    31 1   
    57    29    62 1   
    58    30    31 1   
    59    30    32 1   
    60    30    37 1   
    61    31    63 1   
    62    31    64 1   
    63    32    33 1   
    64    32    65 1   
    65    32    66 1   
    66    33    34 1   
    67    33    67 1   
    68    33    68 1   
    69    34    35 1   
    70    34    36 1   
    71    35    69 1   
    72    35    70 1   
    73    35    71 1   
    74    36    37 1   
    75    36    72 1   
    76    36    73 1   
    77    37    74 1   
    78    37    75 1   
@<TRIPOS>SUBSTRUCTURE
     1 V1S         1 TEMP              0 ****  ****    0 ROOT
