@<TRIPOS>MOLECULE
V1T
   26    27     1     0     0
SMALL
No Charge or Current Charge


@<TRIPOS>ATOM
      1 C01         -2.9600     2.1740    -0.0900 c3         1 V1T       0.103300
      2 N05         -2.1370     0.9670     0.0920 n          1 V1T      -0.291000
      3 C06         -0.7390     0.8960    -0.1640 ca         1 V1T       0.026600
      4 C07          0.2290     1.9010    -0.0690 ca         1 V1T      -0.126000
      5 C09          1.5890     1.5230    -0.0630 ca         1 V1T      -0.082000
      6 C11          1.9680     0.1490    -0.0420 ca         1 V1T      -0.155600
      7 C12          0.9540    -0.8440    -0.0250 ca         1 V1T      -0.051000
      8 C14         -0.3850    -0.4450    -0.1360 ca         1 V1T      -0.011400
      9 N15         -1.5700    -1.1860     0.1360 n          1 V1T      -0.289000
     10 C16         -1.6890    -2.6480     0.0030 c3         1 V1T       0.104300
     11 C20         -2.6680    -0.3210     0.2420 c          1 V1T       0.596000
     12 O21         -3.8440    -0.6270     0.3920 o          1 V1T      -0.558000
     13 C22          3.4180    -0.2790     0.0200 c          1 V1T       0.621700
     14 N23          4.3700     0.6790     0.0150 nt         1 V1T      -0.605000
     15 O26          3.7580    -1.4490     0.0740 o          1 V1T      -0.613100
     16 H011        -2.4530     2.8750    -0.7650 h1         1 V1T       0.052367
     17 H012        -3.9320     1.9060    -0.5240 h1         1 V1T       0.052367
     18 H013        -3.1200     2.6590     0.8810 h1         1 V1T       0.052367
     19 H07         -0.0570     2.9470     0.0060 ha         1 V1T       0.125000
     20 H09          2.3380     2.3100    -0.0260 ha         1 V1T       0.107000
     21 H12          1.2030    -1.8980     0.0800 ha         1 V1T       0.150000
     22 H161        -0.8920    -3.1380     0.5770 h1         1 V1T       0.054033
     23 H162        -2.6600    -2.9880     0.3850 h1         1 V1T       0.054033
     24 H163        -1.5980    -2.9300    -1.0530 h1         1 V1T       0.054033
     25 H231         4.1110     1.6510    -0.0330 hn         1 V1T       0.314500
     26 H232         5.3400     0.4060     0.0550 hn         1 V1T       0.314500
@<TRIPOS>BOND
     1     1     2 1   
     2     1    16 1   
     3     1    17 1   
     4     1    18 1   
     5     2     3 1   
     6     2    11 1   
     7     3     4 ar  
     8     3     8 ar  
     9     4     5 ar  
    10     4    19 1   
    11     5     6 ar  
    12     5    20 1   
    13     6     7 ar  
    14     6    13 1   
    15     7     8 ar  
    16     7    21 1   
    17     8     9 1   
    18     9    10 1   
    19     9    11 1   
    20    10    22 1   
    21    10    23 1   
    22    10    24 1   
    23    11    12 2   
    24    13    14 1   
    25    13    15 2   
    26    14    25 1   
    27    14    26 1   
@<TRIPOS>SUBSTRUCTURE
     1 V1T         1 TEMP              0 ****  ****    0 ROOT
