@<TRIPOS>MOLECULE
V1T
   26    27     1     0     0
SMALL
abcg2


@<TRIPOS>ATOM
      1 C01         -2.9150     2.1530    -0.0270 c3         1 V1T       0.103300
      2 N05         -2.1190     0.9530    -0.0080 n          1 V1T      -0.291000
      3 C06         -0.7490     0.9090    -0.0140 ca         1 V1T       0.026600
      4 C07          0.2060     1.9060    -0.0350 ca         1 V1T      -0.126000
      5 C09          1.5420     1.5170    -0.0360 ca         1 V1T      -0.082000
      6 C11          1.9190     0.1720    -0.0170 ca         1 V1T      -0.155600
      7 C12          0.9390    -0.8280     0.0010 ca         1 V1T      -0.051000
      8 C14         -0.3810    -0.4410     0.0050 ca         1 V1T      -0.011400
      9 N15         -1.5460    -1.1740     0.0270 n          1 V1T      -0.289000
     10 C16         -1.6240    -2.6120     0.0440 c3         1 V1T       0.104300
     11 C20         -2.6300    -0.3290     0.0150 c          1 V1T       0.596000
     12 O21         -3.8050    -0.6430     0.0230 o          1 V1T      -0.558000
     13 C22          3.3420    -0.2870    -0.0200 c          1 V1T       0.621700
     14 N23          4.2990     0.6520     0.0180 nt         1 V1T      -0.605000
     15 O26          3.6130    -1.4820    -0.0540 o          1 V1T      -0.613100
     16 H011        -2.7060     2.7400    -0.9200 h1         1 V1T       0.052367
     17 H012        -3.9660     1.8810    -0.0280 h1         1 V1T       0.052367
     18 H013        -2.7150     2.7640     0.8530 h1         1 V1T       0.052367
     19 H07         -0.0620     2.9540    -0.0510 ha         1 V1T       0.125000
     20 H09          2.2800     2.3070    -0.0550 ha         1 V1T       0.107000
     21 H12          1.2200    -1.8730     0.0100 ha         1 V1T       0.150000
     22 H161        -1.0450    -3.0130     0.8750 h1         1 V1T       0.054033
     23 H162        -2.6610    -2.9110     0.1670 h1         1 V1T       0.054033
     24 H163        -1.2460    -3.0340    -0.8870 h1         1 V1T       0.054033
     25 H231         4.1180     1.6380     0.0640 hn         1 V1T       0.314500
     26 H232         5.2660     0.3700     0.0190 hn         1 V1T       0.314500
@<TRIPOS>BOND
     1     1     2 1   
     2     1    16 1   
     3     1    17 1   
     4     1    18 1   
     5     2     3 1   
     6     2    11 1   
     7     3     4 ar  
     8     3     8 ar  
     9     4     5 ar  
    10     4    19 1   
    11     5     6 ar  
    12     5    20 1   
    13     6     7 ar  
    14     6    13 1   
    15     7     8 ar  
    16     7    21 1   
    17     8     9 1   
    18     9    10 1   
    19     9    11 1   
    20    10    22 1   
    21    10    23 1   
    22    10    24 1   
    23    11    12 2   
    24    13    14 1   
    25    13    15 2   
    26    14    25 1   
    27    14    26 1   
@<TRIPOS>SUBSTRUCTURE
     1 V1T         1 TEMP              0 ****  ****    0 ROOT
