@<TRIPOS>MOLECULE
V1U
   25    25     1     0     0
SMALL
No Charge or Current Charge


@<TRIPOS>ATOM
      1 C7          36.9350    -0.4960   -22.3810 ca         1 V1U      -0.079000
      2 C8          36.1850     0.3530   -23.2260 ca         1 V1U      -0.155600
      3 C9          34.7530    -0.0230   -23.4510 c          1 V1U       0.706600
      4 O1          36.2280     2.4190   -24.6490 os         1 V1U      -0.381100
      5 C1          34.6360     3.6020   -26.0220 c3         1 V1U       0.142600
      6 C5          38.9080     0.8860   -22.6720 ca         1 V1U      -0.127000
      7 C6          38.2860    -0.2320   -22.1050 ca         1 V1U      -0.158000
      8 C4          38.1760     1.7380   -23.5130 ca         1 V1U      -0.159000
      9 C3          36.8200     1.4920   -23.8030 ca         1 V1U       0.138100
     10 O3          34.5020    -0.8050   -24.3560 o          1 V1U      -0.714000
     11 C2          34.8580     2.3860   -25.0990 c3         1 V1U       0.165600
     12 O2          33.9220     0.3840   -22.6530 o          1 V1U      -0.714000
     13 O           33.2700     3.5810   -26.4790 os         1 V1U      -0.453000
     14 C           32.9200     4.6650   -27.3550 c3         1 V1U       0.151900
     15 H1          36.4610    -1.3680   -21.9360 ha         1 V1U       0.116000
     16 H2          35.3280     3.5450   -26.8730 h1         1 V1U       0.021700
     17 H3          34.8420     4.5250   -25.4650 h1         1 V1U       0.021700
     18 H4          39.9540     1.0950   -22.4600 ha         1 V1U       0.084000
     19 H5          38.8470    -0.8960   -21.4520 ha         1 V1U       0.087000
     20 H6          38.6660     2.6050   -23.9490 ha         1 V1U       0.097000
     21 H7          34.1630     2.4570   -24.2530 h1         1 V1U       0.074700
     22 H8          34.6510     1.4720   -25.6680 h1         1 V1U       0.074700
     23 H10         31.8700     4.5840   -27.6600 h1         1 V1U       0.019700
     24 H11         33.0570     5.6320   -26.8520 h1         1 V1U       0.019700
     25 H12         33.5420     4.6520   -28.2590 h1         1 V1U       0.019700
@<TRIPOS>BOND
     1     1     2 ar  
     2     1     7 ar  
     3     1    15 1   
     4     2     3 1   
     5     2     9 ar  
     6     3    10 1   
     7     3    12 1   
     8     4     9 1   
     9     4    11 1   
    10     5    11 1   
    11     5    13 1   
    12     5    16 1   
    13     5    17 1   
    14     6     7 ar  
    15     6     8 ar  
    16     6    18 1   
    17     7    19 1   
    18     8     9 ar  
    19     8    20 1   
    20    11    21 1   
    21    11    22 1   
    22    13    14 1   
    23    14    23 1   
    24    14    24 1   
    25    14    25 1   
@<TRIPOS>SUBSTRUCTURE
     1 V1U         1 TEMP              0 ****  ****    0 ROOT
