@<TRIPOS>MOLECULE
V1U
   25    25     1     0     0
SMALL
abcg2


@<TRIPOS>ATOM
      1 C7          36.9920    -0.5570   -22.7000 ca         1 V1U      -0.079000
      2 C8          36.0730     0.4160   -23.1060 ca         1 V1U      -0.155600
      3 C9          34.5880     0.0870   -22.9880 c          1 V1U       0.706600
      4 O1          35.7940     2.6950   -23.9610 os         1 V1U      -0.381100
      5 C1          34.6190     3.6070   -25.8020 c3         1 V1U       0.142600
      6 C5          38.8360     0.9400   -23.0450 ca         1 V1U      -0.127000
      7 C6          38.3570    -0.3070   -22.6530 ca         1 V1U      -0.158000
      8 C4          37.9480     1.9090   -23.4900 ca         1 V1U      -0.159000
      9 C3          36.5760     1.6550   -23.5230 ca         1 V1U       0.138100
     10 O3          34.1850    -0.9370   -23.5890 o          1 V1U      -0.714000
     11 C2          34.7200     2.4200   -24.8660 c3         1 V1U       0.165600
     12 O2          33.9070     0.8520   -22.2610 o          1 V1U      -0.714000
     13 O           33.4890     3.4050   -26.6320 os         1 V1U      -0.453000
     14 C           33.3140     4.4520   -27.5730 c3         1 V1U       0.151900
     15 H1          36.6110    -1.5240   -22.3960 ha         1 V1U       0.116000
     16 H2          35.5300     3.6930   -26.4080 h1         1 V1U       0.021700
     17 H3          34.5090     4.5330   -25.2220 h1         1 V1U       0.021700
     18 H4          39.8980     1.1540   -23.0210 ha         1 V1U       0.084000
     19 H5          39.0400    -1.0760   -22.3140 ha         1 V1U       0.087000
     20 H6          38.3000     2.8760   -23.8290 ha         1 V1U       0.097000
     21 H7          33.7880     2.2890   -24.3150 h1         1 V1U       0.074700
     22 H8          34.9280     1.5080   -25.4280 h1         1 V1U       0.074700
     23 H10         32.4280     4.2160   -28.1610 h1         1 V1U       0.019700
     24 H11         33.1700     5.4150   -27.0700 h1         1 V1U       0.019700
     25 H12         34.1810     4.5300   -28.2400 h1         1 V1U       0.019700
@<TRIPOS>BOND
     1     1     2 ar  
     2     1     7 ar  
     3     1    15 1   
     4     2     3 1   
     5     2     9 ar  
     6     3    10 1   
     7     3    12 1   
     8     4     9 1   
     9     4    11 1   
    10     5    11 1   
    11     5    13 1   
    12     5    16 1   
    13     5    17 1   
    14     6     7 ar  
    15     6     8 ar  
    16     6    18 1   
    17     7    19 1   
    18     8     9 ar  
    19     8    20 1   
    20    11    21 1   
    21    11    22 1   
    22    13    14 1   
    23    14    23 1   
    24    14    24 1   
    25    14    25 1   
@<TRIPOS>SUBSTRUCTURE
     1 V1U         1 TEMP              0 ****  ****    0 ROOT
