@<TRIPOS>MOLECULE
V1V
   22    21     1     0     0
SMALL
bcc


@<TRIPOS>ATOM
      1 C01          6.1110    -5.9720    23.7190 c3         1 V1V      -0.085100
      2 C02          7.3750    -5.1380    23.9020 c3         1 V1V      -0.065400
      3 C03          8.1650    -4.8840    22.6100 c3         1 V1V      -0.078400
      4 C04          7.8020    -3.5910    21.8760 c3         1 V1V       0.146500
      5 N05          6.3720    -3.5490    21.5950 n8         1 V1V      -0.911800
      6 C23          8.5710    -3.4620    20.5370 c3         1 V1V      -0.002900
      7 O24          9.9330    -3.7990    20.6680 oh         1 V1V      -0.566800
      8 C26          8.4670    -2.0280    19.9570 c          1 V1V       0.935600
      9 O27          7.3060    -1.6410    19.6850 o          1 V1V      -0.824800
     10 O1           9.5140    -1.3820    19.8080 o          1 V1V      -0.824800
     11 H1           5.6000    -6.1270    24.6700 hc         1 V1V       0.026367
     12 H2           5.4070    -5.5050    23.0320 hc         1 V1V       0.026367
     13 H3           6.3560    -6.9550    23.3140 hc         1 V1V       0.026367
     14 H4           8.0220    -5.6550    24.6140 hc         1 V1V       0.020200
     15 H5           7.1280    -4.1830    24.3770 hc         1 V1V       0.020200
     16 H6           8.0310    -5.7370    21.9330 hc         1 V1V       0.031700
     17 H7           9.2270    -4.8480    22.8630 hc         1 V1V       0.031700
     18 H8           8.1220    -2.7560    22.5260 h1         1 V1V       0.018700
     19 H9           5.8670    -3.3650    22.4530 hn         1 V1V       0.350300
     20 H10          6.2090    -2.7540    20.9850 hn         1 V1V       0.350300
     21 H12          8.0700    -4.1460    19.8320 h1         1 V1V       0.023700
     22 H13          9.9860    -4.7450    20.8330 ho         1 V1V       0.352000
@<TRIPOS>BOND
     1     1     2 1   
     2     1    11 1   
     3     1    12 1   
     4     1    13 1   
     5     2     3 1   
     6     2    14 1   
     7     2    15 1   
     8     3     4 1   
     9     3    16 1   
    10     3    17 1   
    11     4     5 1   
    12     4     6 1   
    13     4    18 1   
    14     5    19 1   
    15     5    20 1   
    16     6     7 1   
    17     6     8 1   
    18     6    21 1   
    19     7    22 1   
    20     8     9 1   
    21     8    10 1   
@<TRIPOS>SUBSTRUCTURE
     1 V1V         1 TEMP              0 ****  ****    0 ROOT
