@<TRIPOS>MOLECULE
V1V
   22    21     1     0     0
SMALL
No Charge or Current Charge


@<TRIPOS>ATOM
      1 C01          6.0380    -5.5570    23.9740 c3         1 V1V      -0.085100
      2 C02          7.5620    -5.3340    23.8540 c3         1 V1V      -0.065400
      3 C03          8.1160    -5.1000    22.4200 c3         1 V1V      -0.078400
      4 C04          7.7860    -3.7220    21.7610 c3         1 V1V       0.146500
      5 N05          6.3490    -3.6630    21.4290 n8         1 V1V      -1.022200
      6 C23          8.6580    -3.4110    20.4940 c3         1 V1V       0.020300
      7 O24         10.0790    -3.4930    20.8080 oh         1 V1V      -0.629000
      8 C26          8.2870    -2.0290    19.8360 c          1 V1V       0.725000
      9 O27          8.1720    -1.9820    18.6160 o          1 V1V      -0.719500
     10 O1           8.1780    -1.0350    20.5490 o          1 V1V      -0.719500
     11 H1           5.7940    -5.9390    24.9730 hc         1 V1V       0.026367
     12 H2           5.4840    -4.6220    23.8380 hc         1 V1V       0.026367
     13 H3           5.6900    -6.2900    23.2370 hc         1 V1V       0.026367
     14 H4           8.0580    -6.2240    24.2600 hc         1 V1V       0.020200
     15 H5           7.8570    -4.4990    24.5000 hc         1 V1V       0.020200
     16 H6           7.7840    -5.9130    21.7620 hc         1 V1V       0.031700
     17 H7           9.2040    -5.2060    22.4970 hc         1 V1V       0.031700
     18 H8           7.9800    -2.9440    22.5120 h1         1 V1V       0.018700
     19 H9           5.8180    -3.9990    22.2380 hn         1 V1V       0.405500
     20 H10          6.0710    -2.6770    21.3510 hn         1 V1V       0.405500
     21 H12          8.4240    -4.1820    19.7460 h1         1 V1V       0.023700
     22 H13         10.2520    -4.4010    21.1340 ho         1 V1V       0.391000
@<TRIPOS>BOND
     1     1     2 1   
     2     1    11 1   
     3     1    12 1   
     4     1    13 1   
     5     2     3 1   
     6     2    14 1   
     7     2    15 1   
     8     3     4 1   
     9     3    16 1   
    10     3    17 1   
    11     4     5 1   
    12     4     6 1   
    13     4    18 1   
    14     5    19 1   
    15     5    20 1   
    16     6     7 1   
    17     6     8 1   
    18     6    21 1   
    19     7    22 1   
    20     8     9 1   
    21     8    10 1   
@<TRIPOS>SUBSTRUCTURE
     1 V1V         1 TEMP              0 ****  ****    0 ROOT
