@<TRIPOS>MOLECULE
V1W
   57    62     1     0     0
SMALL
abcg2


@<TRIPOS>ATOM
      1 C1          14.5020    -3.1290   -17.7430 c          1 V1W       0.481800
      2 C10         16.3390     0.7750   -20.1540 ca         1 V1W      -0.017000
      3 C11         18.1550     2.1810   -19.3100 ca         1 V1W      -0.210000
      4 C12         18.0950     2.9530   -20.4430 ca         1 V1W       0.149100
      5 C13         17.1530     2.6450   -21.4520 ca         1 V1W      -0.126000
      6 C14         16.3020     1.5880   -21.3110 ca         1 V1W      -0.052000
      7 C16         11.3660    -1.0390   -21.4810 ca         1 V1W      -0.091300
      8 C17         10.3100    -1.7430   -20.9090 ca         1 V1W      -0.096500
      9 C18          9.1580    -1.0810   -20.5040 ca         1 V1W      -0.115000
     10 C19          9.0500     0.2940   -20.6630 ca         1 V1W      -0.106000
     11 C2          13.6990    -2.4200   -19.7060 cc         1 V1W       0.016000
     12 C20         10.1010     1.0040   -21.2300 ca         1 V1W      -0.115000
     13 C21         11.2510     0.3410   -21.6340 ca         1 V1W      -0.096500
     14 C23         12.2660    -4.1240   -15.8410 ca         1 V1W      -0.133300
     15 C24         12.6350    -3.2050   -14.8650 ca         1 V1W      -0.049500
     16 C25         12.8040    -3.5820   -13.5410 ca         1 V1W      -0.177000
     17 C26         12.6000    -4.9070   -13.1650 ca         1 V1W       0.147100
     18 C27         12.2200    -5.8390   -14.1290 ca         1 V1W      -0.177000
     19 C28         12.0590    -5.4440   -15.4470 ca         1 V1W      -0.049500
     20 C3          13.2770    -3.9400   -18.2020 c5         1 V1W       0.253200
     21 C4          15.5370    -1.0890   -18.8140 ca         1 V1W      -0.004000
     22 C5          15.4600    -0.3290   -19.9720 ca         1 V1W       0.219000
     23 C6          13.6940    -1.5380   -20.8650 cc         1 V1W       0.391300
     24 C7          16.4760    -0.7810   -17.8110 ca         1 V1W      -0.117000
     25 C8          17.3210     0.2790   -17.9840 ca         1 V1W      -0.070000
     26 C9          17.2820     1.0840   -19.1470 ca         1 V1W      -0.015000
     27 N1          14.6280    -2.1380   -18.7080 n          1 V1W      -0.063800
     28 N2          12.9510    -3.4340   -19.5120 n2         1 V1W      -0.320200
     29 N3          14.5370    -0.5820   -20.9660 nd         1 V1W      -0.634000
     30 O1          18.8880     4.0150   -20.6700 oh         1 V1W      -0.529100
     31 O2          15.1810    -3.2930   -16.7690 o          1 V1W      -0.458000
     32 O3          13.5270    -5.3070   -18.1920 os         1 V1W      -0.189000
     33 O4          14.6640    -5.5480   -18.9910 oh         1 V1W      -0.437000
     34 O5          12.7420    -5.3380   -11.8960 oh         1 V1W      -0.533100
     35 H1          18.8720     2.4030   -18.5260 ha         1 V1W       0.116000
     36 H2          17.1150     3.2610   -22.3420 ha         1 V1W       0.132000
     37 H3          15.5870     1.3680   -22.0910 ha         1 V1W       0.140000
     38 H4          12.4510    -2.8040   -22.0540 hc         1 V1W       0.078700
     39 H5          12.9990    -1.3240   -22.8470 hc         1 V1W       0.078700
     40 H6          10.3920    -2.8140   -20.7770 ha         1 V1W       0.121500
     41 H7           8.3430    -1.6410   -20.0650 ha         1 V1W       0.113000
     42 H8           8.1520     0.8100   -20.3480 ha         1 V1W       0.112000
     43 H9          10.0250     2.0760   -21.3600 ha         1 V1W       0.113000
     44 H10         12.0670     0.9010   -22.0760 ha         1 V1W       0.121500
     45 H11         11.8340    -2.6330   -17.3170 hc         1 V1W       0.074200
     46 H12         11.2260    -4.2230   -17.7170 hc         1 V1W       0.074200
     47 H13         12.7910    -2.1670   -15.1350 ha         1 V1W       0.115500
     48 H14         13.0910    -2.8420   -12.8030 ha         1 V1W       0.121500
     49 H15         12.0480    -6.8690   -13.8420 ha         1 V1W       0.121500
     50 H16         11.7520    -6.1820   -16.1780 ha         1 V1W       0.115500
     51 H17         16.5340    -1.3700   -16.9100 ha         1 V1W       0.146000
     52 H18         18.0420     0.5120   -17.2100 ha         1 V1W       0.121000
     53 H20         19.5010     4.1470   -19.9360 ho         1 V1W       0.467000
     54 H21         15.3080    -5.8540   -18.3350 ho         1 V1W       0.454000
     55 H22         13.0090    -4.6110   -11.3200 ho         1 V1W       0.465000
     56 C15         12.6360    -1.7390   -21.9060 c3         1 V1W      -0.076400
     57 C22         12.0720    -3.6980   -17.2680 c3         1 V1W      -0.002100
@<TRIPOS>BOND
     1     1    20 1   
     2     1    27 1   
     3     1    31 2   
     4     2     6 ar  
     5     2    22 ar  
     6     2    26 ar  
     7     3     4 ar  
     8     3    26 ar  
     9     3    35 1   
    10     4     5 ar  
    11     4    30 1   
    12     5     6 ar  
    13     5    36 1   
    14     6    37 1   
    15     7     8 ar  
    16     7    13 ar  
    17     7    56 1   
    18     8     9 ar  
    19     8    40 1   
    20     9    10 ar  
    21     9    41 1   
    22    10    12 ar  
    23    10    42 1   
    24    11    23 1   
    25    11    27 1   
    26    11    28 2   
    27    12    13 ar  
    28    12    43 1   
    29    13    44 1   
    30    14    15 ar  
    31    14    19 ar  
    32    14    57 1   
    33    15    16 ar  
    34    15    47 1   
    35    16    17 ar  
    36    16    48 1   
    37    17    18 ar  
    38    17    34 1   
    39    18    19 ar  
    40    18    49 1   
    41    19    50 1   
    42    20    28 1   
    43    20    32 1   
    44    20    57 1   
    45    21    22 ar  
    46    21    24 ar  
    47    21    27 1   
    48    22    29 1   
    49    23    29 2   
    50    23    56 1   
    51    24    25 ar  
    52    24    51 1   
    53    25    26 ar  
    54    25    52 1   
    55    30    53 1   
    56    32    33 1   
    57    33    54 1   
    58    34    55 1   
    59    38    56 1   
    60    39    56 1   
    61    45    57 1   
    62    46    57 1   
@<TRIPOS>SUBSTRUCTURE
     1 V1W         1 TEMP              0 ****  ****    0 ROOT
