@<TRIPOS>MOLECULE
V1W
   57    62     1     0     0
SMALL
No Charge or Current Charge


@<TRIPOS>ATOM
      1 C1          14.4890    -3.0750   -17.7320 c          1 V1W       0.481800
      2 C10         16.4510     0.8310   -20.1660 ca         1 V1W      -0.017000
      3 C11         18.3350     2.1280   -19.2760 ca         1 V1W      -0.210000
      4 C12         18.3400     2.9300   -20.4240 ca         1 V1W       0.149100
      5 C13         17.4090     2.6950   -21.4440 ca         1 V1W      -0.126000
      6 C14         16.4700     1.6570   -21.3190 ca         1 V1W      -0.052000
      7 C16         11.2640    -1.0710   -21.5310 ca         1 V1W      -0.091300
      8 C17         10.2120    -1.9540   -21.2160 ca         1 V1W      -0.096500
      9 C18          8.9530    -1.4510   -20.8420 ca         1 V1W      -0.115000
     10 C19          8.7390    -0.0640   -20.7800 ca         1 V1W      -0.106000
     11 C2          13.6370    -2.2800   -19.7010 cc         1 V1W       0.016000
     12 C20          9.7850     0.8210   -21.0930 ca         1 V1W      -0.115000
     13 C21         11.0440     0.3180   -21.4670 ca         1 V1W      -0.096500
     14 C23         12.2500    -4.0140   -15.7380 ca         1 V1W      -0.133300
     15 C24         12.7410    -3.1370   -14.7500 ca         1 V1W      -0.049500
     16 C25         12.9450    -3.5920   -13.4360 ca         1 V1W      -0.177000
     17 C26         12.6570    -4.9250   -13.1020 ca         1 V1W       0.147100
     18 C27         12.1640    -5.8010   -14.0790 ca         1 V1W      -0.177000
     19 C28         11.9590    -5.3490   -15.3940 ca         1 V1W      -0.049500
     20 C3          13.1890    -3.8200   -18.1540 c5         1 V1W       0.253200
     21 C4          15.5450    -1.0330   -18.8490 ca         1 V1W      -0.004000
     22 C5          15.5050    -0.2260   -20.0220 ca         1 V1W       0.219000
     23 C6          13.6820    -1.4010   -20.8520 cc         1 V1W       0.391300
     24 C7          16.4840    -0.7420   -17.8330 ca         1 V1W      -0.117000
     25 C8          17.4030     0.3010   -17.9850 ca         1 V1W      -0.070000
     26 C9          17.3970     1.0840   -19.1450 ca         1 V1W      -0.015000
     27 N1          14.5820    -2.0940   -18.7220 n          1 V1W      -0.063800
     28 N2          12.8140    -3.2680   -19.4950 n2         1 V1W      -0.320200
     29 N3          14.5590    -0.4130   -21.0580 nd         1 V1W      -0.634000
     30 O1          19.2460     3.9390   -20.5520 oh         1 V1W      -0.529100
     31 O2          15.2940    -3.3330   -16.8420 o          1 V1W      -0.458000
     32 O3          13.4000    -5.2630   -18.2230 os         1 V1W      -0.189000
     33 O4          14.5080    -5.5950   -19.1530 oh         1 V1W      -0.437000
     34 O5          12.8520    -5.3730   -11.8300 oh         1 V1W      -0.533100
     35 H1          19.0550     2.3110   -18.4820 ha         1 V1W       0.116000
     36 H2          17.4130     3.3190   -22.3340 ha         1 V1W       0.132000
     37 H3          15.7630     1.5040   -22.1310 ha         1 V1W       0.140000
     38 H4          12.5770    -2.6750   -22.1720 hc         1 V1W       0.078700
     39 H5          12.9600    -1.1240   -22.8550 hc         1 V1W       0.078700
     40 H6          10.3680    -3.0300   -21.2570 ha         1 V1W       0.121500
     41 H7           8.1450    -2.1370   -20.5980 ha         1 V1W       0.113000
     42 H8           7.7660     0.3250   -20.4900 ha         1 V1W       0.112000
     43 H9           9.6210     1.8950   -21.0450 ha         1 V1W       0.113000
     44 H10         11.8500     1.0100   -21.7050 ha         1 V1W       0.121500
     45 H11         11.8330    -2.4400   -17.1540 hc         1 V1W       0.074200
     46 H12         11.1050    -3.9660   -17.5610 hc         1 V1W       0.074200
     47 H13         12.9690    -2.1020   -14.9990 ha         1 V1W       0.115500
     48 H14         13.3270    -2.9050   -12.6850 ha         1 V1W       0.121500
     49 H15         11.9390    -6.8320   -13.8190 ha         1 V1W       0.121500
     50 H16         11.5750    -6.0380   -16.1440 ha         1 V1W       0.115500
     51 H17         16.5210    -1.3060   -16.9080 ha         1 V1W       0.146000
     52 H18         18.1210     0.5020   -17.1920 ha         1 V1W       0.121000
     53 H20         19.8090     3.9510   -19.7490 ho         1 V1W       0.467000
     54 H21         15.1990    -5.9010   -18.5230 ho         1 V1W       0.454000
     55 H22         13.1960    -4.6310   -11.2890 ho         1 V1W       0.465000
     56 C15         12.6370    -1.6080   -21.9260 c3         1 V1W      -0.076400
     57 C22         12.0270    -3.5200   -17.1670 c3         1 V1W      -0.002100
@<TRIPOS>BOND
     1     1    20 1   
     2     1    27 1   
     3     1    31 2   
     4     2     6 ar  
     5     2    22 ar  
     6     2    26 ar  
     7     3     4 ar  
     8     3    26 ar  
     9     3    35 1   
    10     4     5 ar  
    11     4    30 1   
    12     5     6 ar  
    13     5    36 1   
    14     6    37 1   
    15     7     8 ar  
    16     7    13 ar  
    17     7    56 1   
    18     8     9 ar  
    19     8    40 1   
    20     9    10 ar  
    21     9    41 1   
    22    10    12 ar  
    23    10    42 1   
    24    11    23 1   
    25    11    27 1   
    26    11    28 2   
    27    12    13 ar  
    28    12    43 1   
    29    13    44 1   
    30    14    15 ar  
    31    14    19 ar  
    32    14    57 1   
    33    15    16 ar  
    34    15    47 1   
    35    16    17 ar  
    36    16    48 1   
    37    17    18 ar  
    38    17    34 1   
    39    18    19 ar  
    40    18    49 1   
    41    19    50 1   
    42    20    28 1   
    43    20    32 1   
    44    20    57 1   
    45    21    22 ar  
    46    21    24 ar  
    47    21    27 1   
    48    22    29 1   
    49    23    29 2   
    50    23    56 1   
    51    24    25 ar  
    52    24    51 1   
    53    25    26 ar  
    54    25    52 1   
    55    30    53 1   
    56    32    33 1   
    57    33    54 1   
    58    34    55 1   
    59    38    56 1   
    60    39    56 1   
    61    45    57 1   
    62    46    57 1   
@<TRIPOS>SUBSTRUCTURE
     1 V1W         1 TEMP              0 ****  ****    0 ROOT
