@<TRIPOS>MOLECULE
V1X
   43    44     1     0     0
SMALL
abcg2


@<TRIPOS>ATOM
      1 N1          17.2280    -9.3190    11.9660 nt         1 V1X      -0.588000
      2 C4          19.2900    -9.6590    13.1650 ca         1 V1X      -0.212600
      3 C5          19.2520   -11.0430    13.0190 ca         1 V1X      -0.053000
      4 C6          20.3580   -11.8370    13.2580 ca         1 V1X      -0.143000
      5 C7          21.5240   -11.2090    13.6550 ca         1 V1X       0.149100
      6 C13         21.6060    -9.8430    13.8320 ca         1 V1X      -0.144000
      7 C20         23.1040    -4.3330    13.0630 ca         1 V1X      -0.099000
      8 C21         24.0430    -3.3220    13.1170 ca         1 V1X       0.139000
      9 C24         23.2570    -2.6820    15.2610 ca         1 V1X       0.140000
     10 C26         22.3150    -3.7100    15.2820 ca         1 V1X      -0.099300
     11 C28         20.1430    -3.0860    16.3770 c3         1 V1X       0.165600
     12 C2          18.0610    -8.8490    12.9010 c          1 V1X       0.630700
     13 O3          17.8300    -7.8140    13.5230 o          1 V1X      -0.639100
     14 O8          22.6760   -11.9640    13.8320 os         1 V1X      -0.406100
     15 C9          22.9460   -12.4580    15.0480 c3         1 V1X       0.518000
     16 F10         23.0460   -11.5110    15.9820 f          1 V1X      -0.106333
     17 F11         24.1050   -13.0910    14.9720 f          1 V1X      -0.106333
     18 F12         22.0230   -13.3240    15.4700 f          1 V1X      -0.106333
     19 C14         20.4840    -9.0440    13.5990 ca         1 V1X       0.065000
     20 N15         20.5040    -7.6730    13.8060 ns         1 V1X      -0.173000
     21 C16         21.6030    -6.8540    13.7820 c          1 V1X       0.668100
     22 O17         22.7310    -7.2220    13.5220 o          1 V1X      -0.598100
     23 N18         21.2930    -5.5520    14.0840 ns         1 V1X      -0.178000
     24 C19         22.2500    -4.5290    14.1440 ca         1 V1X      -0.002000
     25 C23         24.1330    -2.4770    14.2080 ca         1 V1X      -0.108000
     26 CL25        23.3870    -1.6030    16.6130 cl         1 V1X      -0.192000
     27 C27         21.4100    -3.9310    16.4600 c3         1 V1X      -0.041100
     28 O29         19.3750    -3.3460    17.5260 oh         1 V1X      -0.659000
     29 H1          16.3890    -8.8020    11.7490 hn         1 V1X       0.321000
     30 H2          17.4760   -10.0650    11.3400 hn         1 V1X       0.321000
     31 H3          18.3310   -11.5270    12.7250 ha         1 V1X       0.120000
     32 H4          20.3110   -12.9090    13.1230 ha         1 V1X       0.141000
     33 H5          22.5380    -9.4030    14.1470 ha         1 V1X       0.171000
     34 H6          23.0210    -4.9520    12.1820 ha         1 V1X       0.150000
     35 H7          19.5950    -3.3320    15.4580 h1         1 V1X       0.019700
     36 H8          20.4190    -2.0270    16.3020 h1         1 V1X       0.019700
     37 H9          19.5780    -7.2610    13.8790 hn         1 V1X       0.197000
     38 H10         20.3700    -5.3450    14.4340 hn         1 V1X       0.165000
     39 H11         24.8590    -1.6780    14.2390 ha         1 V1X       0.147000
     40 H12         21.9390    -3.6880    17.3820 hc         1 V1X       0.071700
     41 H13         21.1410    -4.9870    16.5270 hc         1 V1X       0.071700
     42 H14         18.5790    -2.8070    17.4860 ho         1 V1X       0.447000
     43 CL22        25.1160    -3.0870    11.7810 cl         1 V1X      -0.184000
@<TRIPOS>BOND
     1     1    12 1   
     2     1    29 1   
     3     1    30 1   
     4     2     3 ar  
     5     2    12 1   
     6     2    19 ar  
     7     3     4 ar  
     8     3    31 1   
     9     4     5 ar  
    10     4    32 1   
    11     5     6 ar  
    12     5    14 1   
    13     6    19 ar  
    14     6    33 1   
    15     7     8 ar  
    16     7    24 ar  
    17     7    34 1   
    18     8    25 ar  
    19     8    43 1   
    20     9    10 ar  
    21     9    25 ar  
    22     9    26 1   
    23    10    24 ar  
    24    10    27 1   
    25    11    27 1   
    26    11    28 1   
    27    11    35 1   
    28    11    36 1   
    29    12    13 2   
    30    14    15 1   
    31    15    16 1   
    32    15    17 1   
    33    15    18 1   
    34    19    20 1   
    35    20    21 1   
    36    20    37 1   
    37    21    22 2   
    38    21    23 1   
    39    23    24 1   
    40    23    38 1   
    41    25    39 1   
    42    27    40 1   
    43    27    41 1   
    44    28    42 1   
@<TRIPOS>SUBSTRUCTURE
     1 V1X         1 TEMP              0 ****  ****    0 ROOT
