@<TRIPOS>MOLECULE
V1X
   43    44     1     0     0
SMALL
No Charge or Current Charge


@<TRIPOS>ATOM
      1 N1          16.7730    -9.0740    13.2510 nt         1 V1X      -0.588000
      2 C4          19.1540    -9.6410    13.5720 ca         1 V1X      -0.212600
      3 C5          18.8920   -11.0040    13.2800 ca         1 V1X      -0.053000
      4 C6          19.9280   -11.9460    13.2360 ca         1 V1X      -0.143000
      5 C7          21.2490   -11.5680    13.4860 ca         1 V1X       0.149100
      6 C13         21.5320   -10.2190    13.7780 ca         1 V1X      -0.144000
      7 C20         23.8750    -4.6940    14.0500 ca         1 V1X      -0.099000
      8 C21         24.7090    -3.5750    14.1710 ca         1 V1X       0.139000
      9 C24         23.0260    -2.4560    15.5100 ca         1 V1X       0.140000
     10 C26         22.1710    -3.5830    15.4090 ca         1 V1X      -0.099300
     11 C28         19.7000    -2.9750    15.1760 c3         1 V1X       0.165600
     12 C2          17.9980    -8.6470    13.6180 c          1 V1X       0.630700
     13 O3          18.1120    -7.4890    13.9810 o          1 V1X      -0.639100
     14 O8          22.2080   -12.5620    13.4320 os         1 V1X      -0.406100
     15 C9          23.6160   -12.3460    13.6580 c3         1 V1X       0.518000
     16 F10         24.1460   -11.4750    12.7700 f          1 V1X      -0.106333
     17 F11         24.3010   -13.5030    13.5300 f          1 V1X      -0.106333
     18 F12         23.8660   -11.8780    14.9030 f          1 V1X      -0.106333
     19 C14         20.5040    -9.2470    13.8150 ca         1 V1X       0.065000
     20 N15         20.7910    -7.8830    14.1060 ns         1 V1X      -0.173000
     21 C16         21.9670    -7.1540    14.1650 c          1 V1X       0.668100
     22 O17         23.0780    -7.6110    13.9280 o          1 V1X      -0.598100
     23 N18         21.7320    -5.8370    14.5320 ns         1 V1X      -0.178000
     24 C19         22.6040    -4.7170    14.6680 ca         1 V1X      -0.002000
     25 C23         24.2860    -2.4580    14.8980 ca         1 V1X      -0.108000
     26 Cl25        22.5450    -1.0000    16.3860 cl         1 V1X      -0.192000
     27 C27         20.7910    -3.5690    16.0890 c3         1 V1X      -0.041100
     28 O29         18.4380    -2.9930    15.8520 oh         1 V1X      -0.659000
     29 H1          16.0020    -8.4250    13.2820 hn         1 V1X       0.321000
     30 H2          16.6340   -10.0200    12.9350 hn         1 V1X       0.321000
     31 H3          17.8830   -11.3600    13.0900 ha         1 V1X       0.120000
     32 H4          19.7030   -12.9860    13.0120 ha         1 V1X       0.141000
     33 H5          22.5510    -9.9260    13.9910 ha         1 V1X       0.171000
     34 H6          24.2280    -5.5290    13.4540 ha         1 V1X       0.150000
     35 H7          19.6430    -3.5630    14.2500 h1         1 V1X       0.019700
     36 H8          19.9730    -1.9460    14.9060 h1         1 V1X       0.019700
     37 H9          19.9590    -7.3370    14.2910 hn         1 V1X       0.197000
     38 H10         20.7630    -5.6270    14.7300 hn         1 V1X       0.165000
     39 H11         24.9330    -1.5900    14.9810 ha         1 V1X       0.147000
     40 H12         20.8220    -2.9970    17.0230 hc         1 V1X       0.071700
     41 H13         20.4900    -4.5760    16.3990 hc         1 V1X       0.071700
     42 H14         17.7780    -2.6010    15.2370 ho         1 V1X       0.447000
     43 Cl22        26.2850    -3.5680    13.3910 cl         1 V1X      -0.184000
@<TRIPOS>BOND
     1     1    12 1   
     2     1    29 1   
     3     1    30 1   
     4     2     3 ar  
     5     2    12 1   
     6     2    19 ar  
     7     3     4 ar  
     8     3    31 1   
     9     4     5 ar  
    10     4    32 1   
    11     5     6 ar  
    12     5    14 1   
    13     6    19 ar  
    14     6    33 1   
    15     7     8 ar  
    16     7    24 ar  
    17     7    34 1   
    18     8    25 ar  
    19     8    43 1   
    20     9    10 ar  
    21     9    25 ar  
    22     9    26 1   
    23    10    24 ar  
    24    10    27 1   
    25    11    27 1   
    26    11    28 1   
    27    11    35 1   
    28    11    36 1   
    29    12    13 2   
    30    14    15 1   
    31    15    16 1   
    32    15    17 1   
    33    15    18 1   
    34    19    20 1   
    35    20    21 1   
    36    20    37 1   
    37    21    22 2   
    38    21    23 1   
    39    23    24 1   
    40    23    38 1   
    41    25    39 1   
    42    27    40 1   
    43    27    41 1   
    44    28    42 1   
@<TRIPOS>SUBSTRUCTURE
     1 V1X         1 TEMP              0 ****  ****    0 ROOT
