@<TRIPOS>MOLECULE
V1Y
   49    53     1     0     0
SMALL
No Charge or Current Charge


@<TRIPOS>ATOM
      1 C4          -5.0680    12.6320    13.9630 ca         1 V1Y      -0.081000
      2 C14         -8.2350    20.5550    14.6270 ca         1 V1Y      -0.367000
      3 C5          -4.2890    13.6580    13.3850 ca         1 V1Y      -0.111000
      4 C6          -4.7680    14.9870    13.4000 ca         1 V1Y       0.026000
      5 C11         -7.4070    18.7780    13.3120 cc         1 V1Y      -0.287000
      6 C7          -6.0370    15.2830    13.9680 ca         1 V1Y      -0.037000
      7 C9          -6.8410    17.4580    12.9280 c          1 V1Y       0.637300
      8 C12         -7.7160    19.7320    12.3450 cd         1 V1Y      -0.079400
      9 C3          -6.3040    12.9310    14.5540 ca         1 V1Y      -0.113000
     10 C15         -7.7190    19.2750    14.6430 ca         1 V1Y       0.187800
     11 C17         -7.9110    19.2560    16.9250 ca         1 V1Y       0.190900
     12 C19         -8.5810    21.1490    15.8390 ca         1 V1Y       0.448900
     13 C2          -6.7940    14.2490    14.5650 ca         1 V1Y      -0.059300
     14 C21         -3.9250    15.9820    12.8620 ca         1 V1Y      -0.172000
     15 C22         -2.6900    15.6200    12.3070 ca         1 V1Y       0.368900
     16 C24         -3.0200    13.4040    12.8050 ca         1 V1Y       0.620900
     17 C26         -1.1810    11.6510    12.4840 ca         1 V1Y       0.263000
     18 C27         -1.0110    10.5560    11.6150 ca         1 V1Y      -0.124000
     19 C28          0.2660    10.0210    11.3720 ca         1 V1Y      -0.104000
     20 C29          1.3920    10.5700    12.0070 ca         1 V1Y      -0.093000
     21 C30          1.2400    11.6490    12.8940 ca         1 V1Y       0.078000
     22 C31         -0.0380    12.1900    13.1400 ca         1 V1Y       0.193000
     23 F32         -0.1640    13.1930    14.0470 f          1 V1Y      -0.147000
     24 N16         -7.5480    18.6020    15.7980 nb         1 V1Y      -0.234000
     25 N18         -8.4220    20.5060    17.0030 nb         1 V1Y      -0.283000
     26 N20         -9.0900    22.4000    15.9130 nv         1 V1Y      -1.071900
     27 N23         -2.2440    14.3500    12.2640 nb         1 V1Y      -0.733000
     28 N25         -2.4900    12.1320    12.6810 nu         1 V1Y      -0.944900
     29 N8          -6.5760    16.5980    13.9770 ns         1 V1Y      -0.170000
     30 O10         -6.6360    17.1510    11.7590 o          1 V1Y      -0.595100
     31 S13         -8.3830    21.2510    13.0030 ss         1 V1Y       0.123400
     32 Cl33         2.6650    12.3010    13.7030 cl         1 V1Y      -0.174000
     33 H1          -4.7200    11.6020    13.9820 ha         1 V1Y       0.112000
     34 H2          -7.5930    19.6430    11.2700 h4         1 V1Y       0.243000
     35 H3          -6.8840    12.1290    15.0050 ha         1 V1Y       0.115000
     36 H4          -8.8480    14.9660    14.4810 hc         1 V1Y       0.046700
     37 H5          -8.6120    13.6270    15.6090 hc         1 V1Y       0.046700
     38 H6          -8.0490    15.2450    16.0400 hc         1 V1Y       0.046700
     39 H7          -7.7770    18.7220    17.8640 h5         1 V1Y       0.050100
     40 H8          -4.1970    17.0320    12.8680 ha         1 V1Y       0.131000
     41 H9          -2.0340    16.3780    11.8800 h4         1 V1Y       0.018100
     42 H10         -1.8720    10.1230    11.1130 ha         1 V1Y       0.119000
     43 H11          0.3830     9.1800    10.6910 ha         1 V1Y       0.121000
     44 H12          2.3790    10.1550    11.8210 ha         1 V1Y       0.131000
     45 H13         -9.1030    22.8530    16.8230 hn         1 V1Y       0.505500
     46 H14         -8.9910    23.0080    15.1060 hn         1 V1Y       0.505500
     47 H15         -3.2160    11.4290    12.5710 hn         1 V1Y       0.495000
     48 H16         -6.8420    16.9440    14.8880 hn         1 V1Y       0.202000
     49 C1          -8.1490    14.5360    15.2090 c3         1 V1Y      -0.048800
@<TRIPOS>BOND
     1     1     3 ar  
     2     1     9 ar  
     3     1    33 1   
     4     2    10 ar  
     5     2    12 ar  
     6     2    31 1   
     7     3     4 ar  
     8     3    16 ar  
     9     4     6 ar  
    10     4    14 ar  
    11     5     7 1   
    12     5     8 2   
    13     5    10 1   
    14     6    13 ar  
    15     6    29 1   
    16     7    29 1   
    17     7    30 2   
    18     8    31 1   
    19     8    34 1   
    20     9    13 ar  
    21     9    35 1   
    22    10    24 ar  
    23    11    24 ar  
    24    11    25 ar  
    25    11    39 1   
    26    12    25 ar  
    27    12    26 1   
    28    13    49 1   
    29    14    15 ar  
    30    14    40 1   
    31    15    27 ar  
    32    15    41 1   
    33    16    27 ar  
    34    16    28 1   
    35    17    18 ar  
    36    17    22 ar  
    37    17    28 1   
    38    18    19 ar  
    39    18    42 1   
    40    19    20 ar  
    41    19    43 1   
    42    20    21 ar  
    43    20    44 1   
    44    21    22 ar  
    45    21    32 1   
    46    22    23 1   
    47    26    45 1   
    48    26    46 1   
    49    28    47 1   
    50    29    48 1   
    51    36    49 1   
    52    37    49 1   
    53    38    49 1   
@<TRIPOS>SUBSTRUCTURE
     1 V1Y         1 TEMP              0 ****  ****    0 ROOT
