@<TRIPOS>MOLECULE
V1Y
   49    53     1     0     0
SMALL
bcc


@<TRIPOS>ATOM
      1 C4          -5.2010    12.5210    14.0410 ca         1 V1Y      -0.099000
      2 C14         -8.0230    20.5030    14.4530 ca         1 V1Y      -0.370700
      3 C5          -4.3670    13.5460    13.5550 ca         1 V1Y      -0.176300
      4 C6          -4.8200    14.8840    13.6030 ca         1 V1Y       0.026000
      5 C11         -7.4180    18.5550    13.2950 cc         1 V1Y      -0.287000
      6 C7          -6.1270    15.1470    14.0830 ca         1 V1Y       0.055600
      7 C9          -6.9520    17.1700    13.0320 c          1 V1Y       0.704300
      8 C12         -7.7600    19.3960    12.2830 cd         1 V1Y      -0.029400
      9 C3          -6.4470    12.8130    14.5260 ca         1 V1Y      -0.131000
     10 C15         -7.5700    19.1940    14.5740 ca         1 V1Y       0.516100
     11 C17         -7.5410    19.4050    16.8070 ca         1 V1Y       0.716900
     12 C19         -8.2210    21.2500    15.6360 ca         1 V1Y       0.777200
     13 C2          -6.9390    14.1340    14.5430 ca         1 V1Y      -0.059300
     14 C21         -3.9250    15.9070    13.2040 ca         1 V1Y      -0.255300
     15 C22         -2.6810    15.5530    12.7790 ca         1 V1Y       0.434200
     16 C24         -3.0480    13.3160    13.0380 ca         1 V1Y       0.686200
     17 C26         -1.2890    11.7200    12.5250 ca         1 V1Y       0.124600
     18 C27         -1.0410    10.9190    11.4150 ca         1 V1Y      -0.142000
     19 C28          0.2570    10.5830    11.0600 ca         1 V1Y      -0.122000
     20 C29          1.3350    11.0610    11.7890 ca         1 V1Y      -0.111000
     21 C30          1.0950    11.8600    12.8980 ca         1 V1Y      -0.013600
     22 C31         -0.2010    12.1680    13.2670 ca         1 V1Y       0.157900
     23 F32         -0.4110    12.8870    14.3670 f          1 V1Y      -0.111900
     24 N16         -7.3220    18.6280    15.7680 nb         1 V1Y      -0.760000
     25 N18         -7.9680    20.6600    16.8060 nb         1 V1Y      -0.809000
     26 N20         -8.6590    22.5080    15.6450 nv         1 V1Y      -0.961500
     27 N23         -2.2480    14.2800    12.6720 nb         1 V1Y      -0.733000
     28 N25         -2.5900    12.0220    12.9290 nu         1 V1Y      -0.751300
     29 N8          -6.5900    16.4790    14.1340 ns         1 V1Y      -0.496100
     30 O10         -6.8990    16.7190    11.9000 o          1 V1Y      -0.595100
     31 S13         -8.2620    20.9450    12.8010 ss         1 V1Y      -0.003500
     32 CL33         2.3970    12.4600    13.8550 cl         1 V1Y      -0.082400
     33 H1          -4.8660    11.4920    14.0600 ha         1 V1Y       0.130000
     34 H2          -7.7400    19.1740    11.2260 h4         1 V1Y       0.193000
     35 H3          -7.0750    12.0150    14.9020 ha         1 V1Y       0.133000
     36 H4          -8.9140    14.9590    14.3250 hc         1 V1Y       0.046700
     37 H5          -8.8360    13.5040    15.3190 hc         1 V1Y       0.046700
     38 H6          -8.2820    15.0470    15.9590 hc         1 V1Y       0.046700
     39 H7          -7.3490    18.9720    17.7830 h5         1 V1Y       0.050100
     40 H8          -4.2020    16.9500    13.2600 ha         1 V1Y       0.149000
     41 H9          -1.9680    16.3140    12.4840 h4         1 V1Y       0.018100
     42 H10         -1.8780    10.5610    10.8300 ha         1 V1Y       0.137000
     43 H11          0.4320     9.9570    10.1960 ha         1 V1Y       0.139000
     44 H12          2.3500    10.8180    11.5070 ha         1 V1Y       0.149000
     45 H13         -8.7400    22.9940    16.5230 hn         1 V1Y       0.450300
     46 H14         -8.8130    23.0400    14.8070 hn         1 V1Y       0.450300
     47 H15         -3.2750    11.3060    12.7420 hn         1 V1Y       0.439800
     48 H16         -6.7410    16.9230    15.0400 hn         1 V1Y       0.368500
     49 C1          -8.3150    14.4240    15.0630 c3         1 V1Y      -0.048800
@<TRIPOS>BOND
     1     1     3 ar  
     2     1     9 ar  
     3     1    33 1   
     4     2    10 ar  
     5     2    12 ar  
     6     2    31 1   
     7     3     4 ar  
     8     3    16 ar  
     9     4     6 ar  
    10     4    14 ar  
    11     5     7 1   
    12     5     8 2   
    13     5    10 1   
    14     6    13 ar  
    15     6    29 1   
    16     7    29 1   
    17     7    30 2   
    18     8    31 1   
    19     8    34 1   
    20     9    13 ar  
    21     9    35 1   
    22    10    24 ar  
    23    11    24 ar  
    24    11    25 ar  
    25    11    39 1   
    26    12    25 ar  
    27    12    26 1   
    28    13    49 1   
    29    14    15 ar  
    30    14    40 1   
    31    15    27 ar  
    32    15    41 1   
    33    16    27 ar  
    34    16    28 1   
    35    17    18 ar  
    36    17    22 ar  
    37    17    28 1   
    38    18    19 ar  
    39    18    42 1   
    40    19    20 ar  
    41    19    43 1   
    42    20    21 ar  
    43    20    44 1   
    44    21    22 ar  
    45    21    32 1   
    46    22    23 1   
    47    26    45 1   
    48    26    46 1   
    49    28    47 1   
    50    29    48 1   
    51    36    49 1   
    52    37    49 1   
    53    38    49 1   
@<TRIPOS>SUBSTRUCTURE
     1 V1Y         1 TEMP              0 ****  ****    0 ROOT
