@<TRIPOS>MOLECULE
V1Z
   48    51     1     0     0
SMALL
abcg2


@<TRIPOS>ATOM
      1 C            2.6380     1.7010   -15.3620 cc         1 V1Z      -0.030300
      2 C4           2.4540     3.0020   -15.8920 cc         1 V1Z      -0.073000
      3 N2           3.0840     4.1410   -15.6150 nd         1 V1Z      -0.288600
      4 C5           2.5120     5.0980   -16.4170 cd         1 V1Z       0.119400
      5 C7           3.9330     6.9130   -15.4910 ca         1 V1Z       0.008000
      6 C8           4.3640     8.2340   -15.4730 ca         1 V1Z      -0.276500
      7 C2           0.6750     2.2030   -17.3370 cc         1 V1Z      -0.117000
      8 C9           3.6910     1.4800   -14.3200 c3         1 V1Z      -0.039800
      9 C10          1.8310     0.7010   -15.8440 cd         1 V1Z      -0.114000
     10 C11          1.5150     4.5460   -17.1980 cc         1 V1Z      -0.267100
     11 C12          3.8440     9.2000   -16.3520 ca         1 V1Z       0.036700
     12 C1           0.8460     0.9520   -16.8340 cd         1 V1Z      -0.132000
     13 N1           1.4740     3.2120   -16.8670 na         1 V1Z       0.129100
     14 C13          2.8630     8.7590   -17.2420 ca         1 V1Z      -0.142000
     15 C14          2.4250     7.4450   -17.2700 ca         1 V1Z      -0.048000
     16 C15          7.5650     7.9910   -15.9230 c6         1 V1Z       0.171800
     17 C16          2.9540     6.4930   -16.3940 ca         1 V1Z      -0.037800
     18 C17          8.3300     8.5640   -17.1140 c6         1 V1Z       0.149300
     19 C19          8.5220    10.7010   -16.0110 c6         1 V1Z       0.149300
     20 C20          7.7630    10.1780   -14.7930 c6         1 V1Z       0.171800
     21 N18          9.2290     9.6600   -16.7570 n7         1 V1Z      -0.843400
     22 N9           6.8740     9.0890   -15.2290 n3         1 V1Z      -0.776500
     23 O1           5.9090     7.4700   -13.5060 o          1 V1Z      -0.553000
     24 O2           5.2060     9.8390   -13.5390 o          1 V1Z      -0.553000
     25 H1           4.3620     6.2030   -14.8020 ha         1 V1Z       0.162000
     26 H2           4.1720    11.1190   -15.4290 hc         1 V1Z       0.062033
     27 H3           5.3490    10.7000   -16.6560 hc         1 V1Z       0.062033
     28 H4           3.7140    11.1790   -17.1400 hc         1 V1Z       0.062033
     29 H5          -0.0520     2.4720   -18.0890 h4         1 V1Z       0.144000
     30 H6           4.6790     1.7520   -14.7010 hc         1 V1Z       0.054367
     31 H7           3.5060     2.1040   -13.4420 hc         1 V1Z       0.054367
     32 H8           3.7110     0.4360   -14.0100 hc         1 V1Z       0.054367
     33 H9           1.9480    -0.3050   -15.4610 ha         1 V1Z       0.124000
     34 H10          0.8490     4.9630   -17.9310 h4         1 V1Z       0.230000
     35 H11          0.2210     0.1500   -17.1990 ha         1 V1Z       0.131000
     36 H12          2.4370     9.4730   -17.9360 ha         1 V1Z       0.114000
     37 H13          1.6670     7.1600   -17.9880 ha         1 V1Z       0.111000
     38 H15          8.2540     7.4860   -15.2360 h1         1 V1Z       0.058700
     39 H16          7.6110     8.9370   -17.8490 h1         1 V1Z       0.061700
     40 H17          8.9070     7.7660   -17.5830 h1         1 V1Z       0.061700
     41 H18          9.2380    11.4560   -15.6840 h1         1 V1Z       0.061700
     42 H19          7.8120    11.1820   -16.6890 h1         1 V1Z       0.061700
     43 H20          8.4700     9.8150   -14.0370 h1         1 V1Z       0.058700
     44 H21          7.1590    10.9680   -14.3530 h1         1 V1Z       0.058700
     45 H22          9.9880     9.2970   -16.1870 hn         1 V1Z       0.404000
     46 S1           5.6100     8.6610   -14.2770 sy         1 V1Z       1.185600
     47 C3           4.2910    10.6330   -16.3960 c3         1 V1Z      -0.076800
     48 H14          6.8280     7.2660   -16.2670 h1         1 V1Z       0.058700
@<TRIPOS>BOND
     1     1     2 1   
     2     1     8 1   
     3     1     9 2   
     4     2     3 2   
     5     2    13 1   
     6     3     4 1   
     7     4    10 2   
     8     4    17 1   
     9     5     6 ar  
    10     5    17 ar  
    11     5    25 1   
    12     6    11 ar  
    13     6    46 1   
    14     7    12 2   
    15     7    13 1   
    16     7    29 1   
    17     8    30 1   
    18     8    31 1   
    19     8    32 1   
    20     9    12 1   
    21     9    33 1   
    22    10    13 1   
    23    10    34 1   
    24    11    14 ar  
    25    11    47 1   
    26    12    35 1   
    27    14    15 ar  
    28    14    36 1   
    29    15    17 ar  
    30    15    37 1   
    31    16    18 1   
    32    16    22 1   
    33    16    38 1   
    34    16    48 1   
    35    18    21 1   
    36    18    39 1   
    37    18    40 1   
    38    19    20 1   
    39    19    21 1   
    40    19    41 1   
    41    19    42 1   
    42    20    22 1   
    43    20    43 1   
    44    20    44 1   
    45    21    45 1   
    46    22    46 1   
    47    23    46 2   
    48    24    46 2   
    49    26    47 1   
    50    27    47 1   
    51    28    47 1   
@<TRIPOS>SUBSTRUCTURE
     1 V1Z         1 TEMP              0 ****  ****    0 ROOT
