@<TRIPOS>MOLECULE
V1Z
   48    51     1     0     0
SMALL
No Charge or Current Charge


@<TRIPOS>ATOM
      1 C            2.7640     1.7050   -15.2190 cc         1 V1Z      -0.030300
      2 C4           2.5460     2.9910   -15.8010 cc         1 V1Z      -0.073000
      3 N2           3.1030     4.1600   -15.5320 nd         1 V1Z      -0.288600
      4 C5           2.5150     5.0760   -16.4050 cd         1 V1Z       0.119400
      5 C7           3.8510     7.0120   -15.5210 ca         1 V1Z       0.008000
      6 C8           4.2090     8.3810   -15.5190 ca         1 V1Z      -0.276500
      7 C2           0.8600     2.1580   -17.3600 cc         1 V1Z      -0.117000
      8 C9           3.7720     1.5540   -14.1090 c3         1 V1Z      -0.039800
      9 C10          2.0150     0.6640   -15.7270 cd         1 V1Z      -0.114000
     10 C11          1.5850     4.4630   -17.2230 cc         1 V1Z      -0.267100
     11 C12          3.5870     9.2680   -16.4370 ca         1 V1Z       0.036700
     12 C1           1.0690     0.9020   -16.7950 cd         1 V1Z      -0.132000
     13 N1           1.6440     3.1680   -16.8060 na         1 V1Z       0.129100
     14 C13          2.6170     8.7590   -17.3210 ca         1 V1Z      -0.142000
     15 C14          2.2660     7.4010   -17.3120 ca         1 V1Z      -0.048000
     16 C15          7.1450     8.3160   -16.3830 c6         1 V1Z       0.171800
     17 C16          2.8800     6.5090   -16.4130 ca         1 V1Z      -0.037800
     18 C17          8.2730     8.8190   -17.3400 c6         1 V1Z       0.149300
     19 C19          9.1170    10.3070   -15.5780 c6         1 V1Z       0.149300
     20 C20          7.9950     9.8050   -14.6130 c6         1 V1Z       0.171800
     21 N18          9.4850     9.2870   -16.6040 n7         1 V1Z      -0.843400
     22 N9           6.7860     9.3330   -15.3480 n3         1 V1Z      -0.776500
     23 O1           5.9140     7.7870   -13.5190 o          1 V1Z      -0.553000
     24 O2           5.0280    10.1810   -13.7350 o          1 V1Z      -0.553000
     25 H1           4.3310     6.3290   -14.8240 ha         1 V1Z       0.162000
     26 H2           3.5600    11.2950   -15.6400 hc         1 V1Z       0.062033
     27 H3           5.0010    10.9250   -16.6110 hc         1 V1Z       0.062033
     28 H4           3.4590    11.2250   -17.3970 hc         1 V1Z       0.062033
     29 H5           0.1710     2.4050   -18.1580 h4         1 V1Z       0.144000
     30 H6           4.7710     1.8530   -14.4460 hc         1 V1Z       0.054367
     31 H7           3.5030     2.1810   -13.2500 hc         1 V1Z       0.054367
     32 H8           3.8330     0.5170   -13.7600 hc         1 V1Z       0.054367
     33 H9           2.1330    -0.3380   -15.3270 ha         1 V1Z       0.124000
     34 H10          0.9350     4.8210   -18.0100 h4         1 V1Z       0.230000
     35 H11          0.4940     0.0630   -17.1740 ha         1 V1Z       0.131000
     36 H12          2.1270     9.4220   -18.0300 ha         1 V1Z       0.114000
     37 H13          1.5130     7.0500   -18.0130 ha         1 V1Z       0.111000
     38 H15          7.4800     7.3850   -15.9020 h1         1 V1Z       0.058700
     39 H16          7.8740     9.6480   -17.9440 h1         1 V1Z       0.061700
     40 H17          8.5470     8.0130   -18.0360 h1         1 V1Z       0.061700
     41 H18         10.0050    10.5860   -14.9920 h1         1 V1Z       0.061700
     42 H19          8.7620    11.2180   -16.0840 h1         1 V1Z       0.061700
     43 H20          8.4050     8.9950   -13.9910 h1         1 V1Z       0.058700
     44 H21          7.7350    10.6290   -13.9320 h1         1 V1Z       0.058700
     45 H22          9.8900     8.4790   -16.1150 hn         1 V1Z       0.404000
     46 S1           5.4770     8.9220   -14.3400 sy         1 V1Z       1.185600
     47 C3           3.9230    10.7550   -16.5220 c3         1 V1Z      -0.076800
     48 H14          6.2750     8.0590   -17.0040 h1         1 V1Z       0.058700
@<TRIPOS>BOND
     1     1     2 1   
     2     1     8 1   
     3     1     9 2   
     4     2     3 2   
     5     2    13 1   
     6     3     4 1   
     7     4    10 2   
     8     4    17 1   
     9     5     6 ar  
    10     5    17 ar  
    11     5    25 1   
    12     6    11 ar  
    13     6    46 1   
    14     7    12 2   
    15     7    13 1   
    16     7    29 1   
    17     8    30 1   
    18     8    31 1   
    19     8    32 1   
    20     9    12 1   
    21     9    33 1   
    22    10    13 1   
    23    10    34 1   
    24    11    14 ar  
    25    11    47 1   
    26    12    35 1   
    27    14    15 ar  
    28    14    36 1   
    29    15    17 ar  
    30    15    37 1   
    31    16    18 1   
    32    16    22 1   
    33    16    38 1   
    34    16    48 1   
    35    18    21 1   
    36    18    39 1   
    37    18    40 1   
    38    19    20 1   
    39    19    21 1   
    40    19    41 1   
    41    19    42 1   
    42    20    22 1   
    43    20    43 1   
    44    20    44 1   
    45    21    45 1   
    46    22    46 1   
    47    23    46 2   
    48    24    46 2   
    49    26    47 1   
    50    27    47 1   
    51    28    47 1   
@<TRIPOS>SUBSTRUCTURE
     1 V1Z         1 TEMP              0 ****  ****    0 ROOT
