@<TRIPOS>MOLECULE
V20
   44    43     1     0     0
SMALL
abcg2


@<TRIPOS>ATOM
      1 OXT         17.3970    36.2060     4.1910 o          1 V20      -0.744000
      2 C           17.0880    36.1410     5.4100 c          1 V20       0.683000
      3 O           17.8900    36.0420     6.3740 o          1 V20      -0.744000
      4 CA          15.5780    36.2420     5.7470 c3         1 V20       0.020500
      5 N           15.1910    35.5830     7.0020 n8         1 V20      -0.994200
      6 CB          15.1860    37.7260     5.7880 c3         1 V20      -0.048400
      7 CAJ         13.6800    37.9620     5.7960 c3         1 V20      -0.071400
      8 CAL         13.3310    39.4540     5.8960 c3         1 V20      -0.151400
      9 CAT         11.8340    39.6530     5.8690 c          1 V20       0.598100
     10 OAE         11.1260    39.4920     6.8640 o          1 V20      -0.609100
     11 NAO         11.3100    39.9850     4.6670 ns         1 V20      -0.501900
     12 CAW          9.8890    40.0390     4.4420 c3         1 V20       0.060700
     13 CAK          9.5590    40.7870     3.1490 c3         1 V20       0.084600
     14 SAI         10.2020    39.8780     1.6820 sh         1 V20      -0.446800
     15 CAU          9.2600    38.6410     4.4220 c          1 V20       0.571100
     16 OAF          9.8820    37.6100     4.3180 o          1 V20      -0.493000
     17 OAP          7.9380    38.7410     4.5020 os         1 V20      -0.402100
     18 CAX          7.1430    37.5370     4.3550 c3         1 V20       0.036300
     19 CAS          5.7920    37.7000     5.0920 c          1 V20       0.723000
     20 OAD          5.4880    38.8160     5.5640 o          1 V20      -0.715000
     21 OAH          5.1210    36.6410     5.1270 o          1 V20      -0.715000
     22 CAN          6.9900    37.2050     2.8730 c3         1 V20       0.085600
     23 SAQ          6.2630    38.5080     1.8280 ss         1 V20      -0.508000
     24 CAA          4.4840    38.2980     2.1300 c3         1 V20       0.061900
     25 HA          15.0290    35.7630     4.9320 h1         1 V20       0.044700
     26 HN1         15.2750    34.5780     6.8830 hn         1 V20       0.378500
     27 HN2         15.9000    35.8220     7.6910 hn         1 V20       0.378500
     28 HBC1        15.6360    38.1780     6.6790 hc         1 V20       0.032700
     29 HBC2        15.6250    38.2290     4.9220 hc         1 V20       0.032700
     30 HAJ1        13.2450    37.5520     4.8800 hc         1 V20       0.058700
     31 HAJ2        13.2260    37.4280     6.6330 hc         1 V20       0.058700
     32 HAL1        13.7060    39.8610     6.8370 hc         1 V20       0.047200
     33 HAL2        13.8030    40.0010     5.0770 hc         1 V20       0.047200
     34 HAO         11.9180    40.0100     3.8620 hn         1 V20       0.323500
     35 HAW          9.4200    40.5860     5.2620 h1         1 V20       0.103700
     36 HAK1         8.4820    40.8900     3.0610 h1         1 V20       0.075700
     37 HAK2        10.0210    41.7710     3.1790 h1         1 V20       0.075700
     38 HAI         10.1090    40.9060     0.8250 hs         1 V20       0.187800
     39 HAX          7.6830    36.7190     4.8310 h1         1 V20       0.064700
     40 HAN1         7.9730    37.0140     2.4430 h1         1 V20       0.069200
     41 HAN2         6.3940    36.2990     2.7750 h1         1 V20       0.069200
     42 HAA1         4.2170    38.5760     3.1460 h1         1 V20       0.056700
     43 HAA2         3.9770    38.9610     1.4300 h1         1 V20       0.056700
     44 HAA3         4.1850    37.2690     1.9320 h1         1 V20       0.056700
@<TRIPOS>BOND
     1     1     2 1   
     2     2     3 1   
     3     2     4 1   
     4     4     5 1   
     5     4     6 1   
     6     4    25 1   
     7     5    26 1   
     8     5    27 1   
     9     6     7 1   
    10     6    28 1   
    11     6    29 1   
    12     7     8 1   
    13     7    30 1   
    14     7    31 1   
    15     8     9 1   
    16     8    32 1   
    17     8    33 1   
    18     9    10 2   
    19     9    11 1   
    20    11    12 1   
    21    11    34 1   
    22    12    13 1   
    23    12    15 1   
    24    12    35 1   
    25    13    14 1   
    26    13    36 1   
    27    13    37 1   
    28    14    38 1   
    29    15    16 2   
    30    15    17 1   
    31    17    18 1   
    32    18    19 1   
    33    18    22 1   
    34    18    39 1   
    35    19    20 1   
    36    19    21 1   
    37    22    23 1   
    38    22    40 1   
    39    22    41 1   
    40    23    24 1   
    41    24    42 1   
    42    24    43 1   
    43    24    44 1   
@<TRIPOS>SUBSTRUCTURE
     1 V20         1 TEMP              0 ****  ****    0 ROOT
