@<TRIPOS>MOLECULE
V20
   44    43     1     0     0
SMALL
No Charge or Current Charge


@<TRIPOS>ATOM
      1 OXT         17.4330    34.6260     5.7490 o          1 V20      -0.744000
      2 C           17.4890    35.8040     6.0730 c          1 V20       0.683000
      3 O           18.5350    36.4410     6.0860 o          1 V20      -0.744000
      4 CA          16.1790    36.4890     6.6450 c3         1 V20       0.020500
      5 N           16.3110    37.1330     8.0030 n8         1 V20      -0.994200
      6 CB          15.6010    37.4920     5.6080 c3         1 V20      -0.048400
      7 CAJ         14.1620    37.9750     5.9160 c3         1 V20      -0.071400
      8 CAL         13.5970    38.9230     4.8310 c3         1 V20      -0.151400
      9 CAT         12.1730    39.3810     5.1660 c          1 V20       0.598100
     10 OAE         11.9310    40.2090     6.0320 o          1 V20      -0.609100
     11 NAO         11.1820    38.8110     4.4020 ns         1 V20      -0.501900
     12 CAW          9.7400    39.1460     4.4940 c3         1 V20       0.060700
     13 CAK          9.4200    40.5580     3.9470 c3         1 V20       0.084600
     14 SAI         10.0680    40.8870     2.2350 sh         1 V20      -0.446800
     15 CAU          8.8770    38.0750     3.7850 c          1 V20       0.571100
     16 OAF          9.3290    37.2100     3.0410 o          1 V20      -0.493000
     17 OAP          7.5820    38.0990     4.2420 os         1 V20      -0.402100
     18 CAX          6.6010    37.1800     3.6720 c3         1 V20       0.036300
     19 CAS          5.3050    37.0590     4.5380 c          1 V20       0.723000
     20 OAD          5.2140    37.6940     5.5820 o          1 V20      -0.715000
     21 OAH          4.4390    36.2780     4.1630 o          1 V20      -0.715000
     22 CAN          6.2850    37.6060     2.2080 c3         1 V20       0.085600
     23 SAQ          5.8970    39.4200     2.0200 ss         1 V20      -0.508000
     24 CAA          4.0850    39.4320     2.4070 c3         1 V20       0.061900
     25 HA          15.4410    35.6810     6.7520 h1         1 V20       0.044700
     26 HN1         16.6450    36.4300     8.6740 hn         1 V20       0.378500
     27 HN2         17.0880    37.8040     7.9640 hn         1 V20       0.378500
     28 HBC1        16.2690    38.3580     5.5250 hc         1 V20       0.032700
     29 HBC2        15.5980    37.0060     4.6240 hc         1 V20       0.032700
     30 HAJ1        13.5020    37.1040     6.0120 hc         1 V20       0.058700
     31 HAJ2        14.1480    38.4920     6.8840 hc         1 V20       0.058700
     32 HAL1        14.2440    39.8060     4.7710 hc         1 V20       0.047200
     33 HAL2        13.6040    38.3940     3.8700 hc         1 V20       0.047200
     34 HAO         11.4740    38.1400     3.6990 hn         1 V20       0.323500
     35 HAW          9.4450    39.1180     5.5510 h1         1 V20       0.103700
     36 HAK1         8.3330    40.7120     3.9470 h1         1 V20       0.075700
     37 HAK2         9.8570    41.3070     4.6200 h1         1 V20       0.075700
     38 HAI          9.5880    42.1500     2.1350 hs         1 V20       0.187800
     39 HAX          7.0140    36.1640     3.6470 h1         1 V20       0.064700
     40 HAN1         7.1570    37.3810     1.5810 h1         1 V20       0.069200
     41 HAN2         5.4500    37.0110     1.8160 h1         1 V20       0.069200
     42 HAA1         3.9190    39.1650     3.4570 h1         1 V20       0.056700
     43 HAA2         3.6770    40.4350     2.2300 h1         1 V20       0.056700
     44 HAA3         3.5590    38.7150     1.7630 h1         1 V20       0.056700
@<TRIPOS>BOND
     1     1     2 1   
     2     2     3 1   
     3     2     4 1   
     4     4     5 1   
     5     4     6 1   
     6     4    25 1   
     7     5    26 1   
     8     5    27 1   
     9     6     7 1   
    10     6    28 1   
    11     6    29 1   
    12     7     8 1   
    13     7    30 1   
    14     7    31 1   
    15     8     9 1   
    16     8    32 1   
    17     8    33 1   
    18     9    10 2   
    19     9    11 1   
    20    11    12 1   
    21    11    34 1   
    22    12    13 1   
    23    12    15 1   
    24    12    35 1   
    25    13    14 1   
    26    13    36 1   
    27    13    37 1   
    28    14    38 1   
    29    15    16 2   
    30    15    17 1   
    31    17    18 1   
    32    18    19 1   
    33    18    22 1   
    34    18    39 1   
    35    19    20 1   
    36    19    21 1   
    37    22    23 1   
    38    22    40 1   
    39    22    41 1   
    40    23    24 1   
    41    24    42 1   
    42    24    43 1   
    43    24    44 1   
@<TRIPOS>SUBSTRUCTURE
     1 V20         1 TEMP              0 ****  ****    0 ROOT
