@<TRIPOS>MOLECULE
V21
   26    28     1     0     0
SMALL
abcg2


@<TRIPOS>ATOM
      1 O12         -5.0510    -0.6140    -0.6420 o          1 V21      -0.574200
      2 S9          -4.1630     0.3850    -0.0620 s6         1 V21       1.603300
      3 O11         -4.1390     1.7180    -0.6470 o          1 V21      -0.547000
      4 N10         -4.4380     0.6110     1.5540 n8         1 V21      -1.000100
      5 C8          -2.5310    -0.2840    -0.0510 cc         1 V21      -0.745000
      6 C13         -2.3590    -1.6840    -0.0140 cc         1 V21      -0.095000
      7 C1          -1.1070    -2.2470     0.0210 cd         1 V21      -0.280800
      8 C7          -1.4640     0.5900    -0.0660 cc         1 V21       0.008000
      9 C6          -0.2120     0.0030    -0.0390 cd         1 V21      -0.187000
     10 C2           0.0130    -1.3990     0.0080 cd         1 V21       0.405800
     11 N5           1.0500     0.5330    -0.0490 na         1 V21       0.159300
     12 S15          3.1310     1.6520    -0.0700 ss         1 V21       0.517100
     13 N14          1.5030     1.7610    -0.0880 n2         1 V21      -0.425900
     14 C16          3.2350    -0.0350    -0.0090 cd         1 V21      -0.362000
     15 C4           1.9310    -0.5330    -0.0050 cc         1 V21       0.372500
     16 N3           1.3290    -1.7140     0.0290 nc         1 V21      -0.669000
     17 S17          4.6540    -1.0030     0.0420 ss         1 V21       0.054000
     18 C18          5.9370     0.2660     0.0310 c3         1 V21      -0.030100
     19 HN10        -4.6150    -0.2600     2.0440 hn         1 V21       0.470500
     20 HN1A        -5.2070     1.2570     1.7100 hn         1 V21       0.470500
     21 H13         -3.2250    -2.3310    -0.0150 ha         1 V21       0.200000
     22 H1          -0.9850    -3.3210     0.0490 ha         1 V21       0.204000
     23 H7          -1.5890     1.6640    -0.0980 ha         1 V21       0.224000
     24 H18          5.9040     0.8500    -0.8870 h1         1 V21       0.075700
     25 H18A         5.8560     0.9120     0.9040 h1         1 V21       0.075700
     26 H18B         6.8850    -0.2640     0.0740 h1         1 V21       0.075700
@<TRIPOS>BOND
     1     1     2 1   
     2     2     3 2   
     3     2     4 1   
     4     2     5 2   
     5     4    19 1   
     6     4    20 1   
     7     5     6 1   
     8     5     8 1   
     9     6     7 2   
    10     6    21 1   
    11     7    10 1   
    12     7    22 1   
    13     8     9 2   
    14     8    23 1   
    15     9    10 1   
    16     9    11 1   
    17    10    16 2   
    18    11    13 2   
    19    11    15 1   
    20    12    13 1   
    21    12    14 1   
    22    14    15 2   
    23    14    17 1   
    24    15    16 1   
    25    17    18 1   
    26    18    24 1   
    27    18    25 1   
    28    18    26 1   
@<TRIPOS>SUBSTRUCTURE
     1 V21         1 TEMP              0 ****  ****    0 ROOT
