@<TRIPOS>MOLECULE
V21
   26    28     1     0     0
SMALL
No Charge or Current Charge


@<TRIPOS>ATOM
      1 O12         -5.1910    -0.5000     0.0930 o          1 V21      -0.574200
      2 S9          -4.1870     0.5510     0.2310 s6         1 V21       1.603300
      3 O11         -4.2260     1.8930    -0.3490 o          1 V21      -0.547000
      4 N10         -3.9570     0.7010     1.8060 n8         1 V21      -1.000100
      5 C8          -2.5440    -0.1790     0.0110 cc         1 V21      -0.745000
      6 C13         -2.3220    -1.6190     0.1770 cc         1 V21      -0.095000
      7 C1          -1.0690    -2.1970     0.0220 cd         1 V21      -0.280800
      8 C7          -1.4240     0.6770    -0.3410 cc         1 V21       0.008000
      9 C6          -0.2240     0.0440    -0.4890 cd         1 V21      -0.187000
     10 C2           0.0100    -1.3380    -0.3210 cd         1 V21       0.405800
     11 N5           0.9610     0.5950    -0.8250 na         1 V21       0.159300
     12 S15          3.0790     1.8050    -0.7610 ss         1 V21       0.517100
     13 N14          1.3850     1.8950    -0.7040 n2         1 V21      -0.425900
     14 C16          3.1140     0.0370    -0.8140 cd         1 V21      -0.362000
     15 C4           1.8390    -0.4370    -0.7610 cc         1 V21       0.372500
     16 N3           1.3030    -1.6800    -0.4760 nc         1 V21      -0.669000
     17 S17          4.5050    -0.9840    -0.4230 ss         1 V21       0.054000
     18 C18          5.4830     0.0510     0.7470 c3         1 V21      -0.030100
     19 HN10        -3.0460     0.2470     1.7580 hn         1 V21       0.470500
     20 HN1A        -4.5850    -0.0400     2.0920 hn         1 V21       0.470500
     21 H13         -3.1680    -2.2640     0.4330 ha         1 V21       0.200000
     22 H1          -0.9050    -3.2600     0.1590 ha         1 V21       0.204000
     23 H7          -1.5290     1.7560    -0.4850 ha         1 V21       0.224000
     24 H18          5.8280     0.9600     0.2410 h1         1 V21       0.075700
     25 H18A         4.8610     0.3210     1.6090 h1         1 V21       0.075700
     26 H18B         6.3530    -0.5190     1.0940 h1         1 V21       0.075700
@<TRIPOS>BOND
     1     1     2 1   
     2     2     3 2   
     3     2     4 1   
     4     2     5 2   
     5     4    19 1   
     6     4    20 1   
     7     5     6 1   
     8     5     8 1   
     9     6     7 2   
    10     6    21 1   
    11     7    10 1   
    12     7    22 1   
    13     8     9 2   
    14     8    23 1   
    15     9    10 1   
    16     9    11 1   
    17    10    16 2   
    18    11    13 2   
    19    11    15 1   
    20    12    13 1   
    21    12    14 1   
    22    14    15 2   
    23    14    17 1   
    24    15    16 1   
    25    17    18 1   
    26    18    24 1   
    27    18    25 1   
    28    18    26 1   
@<TRIPOS>SUBSTRUCTURE
     1 V21         1 TEMP              0 ****  ****    0 ROOT
