@<TRIPOS>MOLECULE
V23
   21    22     1     0     0
SMALL
No Charge or Current Charge


@<TRIPOS>ATOM
      1 C01        -22.1030    -0.7970   -24.7890 c3         1 V23      -0.062900
      2 C02        -22.0720    -2.0380   -25.6370 cc         1 V23       0.054800
      3 C03        -20.8160    -2.7220   -25.8200 cc         1 V23      -0.285000
      4 C04        -20.8120    -3.8520   -26.5870 cd         1 V23       0.464500
      5 C06        -20.0320    -5.3260   -27.8760 cc         1 V23       0.412800
      6 C09        -23.1340    -3.7370   -27.1860 c          1 V23       0.535000
      7 C11        -23.1740    -2.5310   -26.3260 cd         1 V23      -0.378200
      8 C12        -19.1060    -6.2960   -28.6040 c3         1 V23       0.304700
      9 F13        -18.6260    -5.7580   -29.7490 f          1 V23      -0.088000
     10 F14        -19.7400    -7.4440   -28.9400 f          1 V23      -0.088000
     11 F15        -18.0360    -6.6450   -27.8490 f          1 V23      -0.088000
     12 N05        -19.6280    -4.3920   -26.9820 nd         1 V23      -0.662000
     13 N07        -21.4290    -5.2940   -28.0780 na         1 V23      -0.376500
     14 N08        -21.9060    -4.3930   -27.0990 n          1 V23      -0.195300
     15 O10        -24.0720    -4.1290   -27.8660 o          1 V23      -0.569000
     16 H1         -21.5980    -0.9650   -23.8300 hc         1 V23       0.053033
     17 H2         -21.6000     0.0340   -25.2970 hc         1 V23       0.053033
     18 H3         -23.1320    -0.4870   -24.5730 hc         1 V23       0.053033
     19 H4         -19.9000    -2.3260   -25.3990 ha         1 V23       0.220000
     20 H5         -24.1360    -2.0330   -26.2970 ha         1 V23       0.215000
     21 H7         -22.0580    -6.0060   -28.4380 hn         1 V23       0.430000
@<TRIPOS>BOND
     1     1     2 1   
     2     1    16 1   
     3     1    17 1   
     4     1    18 1   
     5     2     3 1   
     6     2     7 2   
     7     3     4 2   
     8     3    19 1   
     9     4    12 1   
    10     4    14 1   
    11     5     8 1   
    12     5    12 2   
    13     5    13 1   
    14     6     7 1   
    15     6    14 1   
    16     6    15 2   
    17     7    20 1   
    18     8     9 1   
    19     8    10 1   
    20     8    11 1   
    21    13    14 1   
    22    13    21 1   
@<TRIPOS>SUBSTRUCTURE
     1 V23         1 TEMP              0 ****  ****    0 ROOT
