@<TRIPOS>MOLECULE
V23
   21    22     1     0     0
SMALL
abcg2


@<TRIPOS>ATOM
      1 C01        -22.1880    -0.8610   -24.7840 c3         1 V23      -0.062900
      2 C02        -22.0030    -2.0470   -25.6840 cc         1 V23       0.054800
      3 C03        -20.7350    -2.6200   -25.8190 cc         1 V23      -0.285000
      4 C04        -20.6240    -3.7020   -26.6630 cd         1 V23       0.464500
      5 C06        -20.0470    -5.3530   -27.8410 cc         1 V23       0.412800
      6 C09        -23.0430    -3.6580   -27.2440 c          1 V23       0.535000
      7 C11        -23.1040    -2.5490   -26.3670 cd         1 V23      -0.378200
      8 C12        -19.2180    -6.4090   -28.5170 c3         1 V23       0.304700
      9 F13        -18.5720    -5.8940   -29.5590 f          1 V23      -0.088000
     10 F14        -19.9850    -7.4020   -28.9560 f          1 V23      -0.088000
     11 F15        -18.3230    -6.8980   -27.6710 f          1 V23      -0.088000
     12 N05        -19.5640    -4.4800   -27.0110 nd         1 V23      -0.662000
     13 N07        -21.3530    -5.2050   -28.0670 na         1 V23      -0.376500
     14 N08        -21.7320    -4.1540   -27.3170 n          1 V23      -0.195300
     15 O10        -23.9220    -4.2070   -27.9030 o          1 V23      -0.569000
     16 H1         -21.2650    -0.5960   -24.2700 hc         1 V23       0.053033
     17 H2         -22.5180     0.0070   -25.3550 hc         1 V23       0.053033
     18 H3         -22.9510    -1.0600   -24.0320 hc         1 V23       0.053033
     19 H4         -19.8680    -2.2470   -25.2950 ha         1 V23       0.220000
     20 H5         -24.0730    -2.0860   -26.2370 ha         1 V23       0.215000
     21 H7         -22.0200    -5.7180   -28.6300 hn         1 V23       0.430000
@<TRIPOS>BOND
     1     1     2 1   
     2     1    16 1   
     3     1    17 1   
     4     1    18 1   
     5     2     3 1   
     6     2     7 2   
     7     3     4 2   
     8     3    19 1   
     9     4    12 1   
    10     4    14 1   
    11     5     8 1   
    12     5    12 2   
    13     5    13 1   
    14     6     7 1   
    15     6    14 1   
    16     6    15 2   
    17     7    20 1   
    18     8     9 1   
    19     8    10 1   
    20     8    11 1   
    21    13    14 1   
    22    13    21 1   
@<TRIPOS>SUBSTRUCTURE
     1 V23         1 TEMP              0 ****  ****    0 ROOT
