@<TRIPOS>MOLECULE
V24
   92    95     1     0     0
SMALL
bcc


@<TRIPOS>ATOM
      1 C2          -8.8170     2.7980    -0.1640 ca         1 V24      -0.115500
      2 C4         -11.1950     2.5880    -0.4620 ca         1 V24      -0.137000
      3 C5         -11.0070     1.3330    -1.0260 ca         1 V24      -0.135500
      4 C6          -9.7280     0.8130    -1.1580 ca         1 V24      -0.115500
      5 C7          -7.2540     0.9860    -0.8730 cp         1 V24      -0.007000
      6 C8          -6.1750     1.8160    -1.1820 ca         1 V24      -0.144500
      7 C9          -4.8980     1.3020    -1.3270 ca         1 V24      -0.015000
      8 C11         -5.7410    -0.9060    -0.8450 ca         1 V24      -0.015000
      9 C12         -7.0130    -0.3810    -0.7090 ca         1 V24      -0.144500
     10 O14         -3.1960    -2.0870    -1.8460 o          1 V24      -0.640800
     11 C17         -2.3670    -2.0380     0.9660 c3         1 V24       0.099500
     12 C18         -3.8290    -2.3660     1.3970 c          1 V24       0.906600
     13 C21         -1.5400    -3.2090     0.4230 c3         1 V24      -0.054700
     14 C22         -0.2090    -2.7630    -0.1730 c3         1 V24      -0.076600
     15 C24         -2.0110     0.4340     0.7940 c3         1 V24       0.206500
     16 C25         -0.5330     0.5840     0.9040 cc         1 V24       0.273600
     17 O52          3.1010     3.4850     2.7500 o          1 V24      -0.574100
     18 C50          2.9810     3.8340     1.5880 c          1 V24       0.676100
     19 C51          2.4360     5.1860     1.2090 c3         1 V24      -0.179100
     20 N49          3.3130     3.0420     0.5410 ns         1 V24      -0.577900
     21 C35          3.8150     1.7070     0.6730 c6         1 V24       0.058700
     22 C34          5.1980     1.5630     0.0350 c6         1 V24       0.112100
     23 O42          6.1260     2.3700     0.7380 os         1 V24      -0.410900
     24 C43          6.5240     3.5390     0.2120 c          1 V24       0.654100
     25 O45          6.1450     3.9540    -0.8500 o          1 V24      -0.541000
     26 C44          7.4870     4.2290     1.1270 c3         1 V24      -0.157100
     27 C33          5.6720     0.1180     0.1110 c6         1 V24       0.109100
     28 O41          6.8830     0.0050    -0.6210 os         1 V24      -0.436900
     29 C46          8.0510    -0.1310     0.0300 c          1 V24       0.648100
     30 O48          8.1420    -0.2050     1.2250 o          1 V24      -0.509000
     31 C47          9.1890    -0.1890    -0.9410 c3         1 V24      -0.157100
     32 C32          4.6250    -0.7860    -0.5470 c6         1 V24       0.147100
     33 C36          4.9830    -2.2480    -0.4090 c3         1 V24       0.149400
     34 O37          3.9900    -2.9860    -1.1130 os         1 V24      -0.409900
     35 C38          4.0690    -4.3130    -1.0830 c          1 V24       0.649100
     36 O40          4.9340    -4.9080    -0.4890 o          1 V24      -0.549000
     37 C39          2.9870    -4.9620    -1.8910 c3         1 V24      -0.156100
     38 O31          3.3880    -0.5960     0.1060 os         1 V24      -0.378600
     39 C30          2.8870     0.7010    -0.0170 c6         1 V24       0.259800
     40 N28          1.5720     0.7060     0.5570 na         1 V24       0.081400
     41 N27          1.3960     0.5900     1.8650 nd         1 V24      -0.191800
     42 N26          0.1310     0.5180     2.0800 nc         1 V24      -0.340000
     43 C29          0.3960     0.7060    -0.0930 cd         1 V24      -0.212600
     44 N16         -2.3540    -0.8230     0.1340 n3         1 V24      -0.747500
     45 C23         -1.2680    -4.1890     1.5640 c3         1 V24      -0.076600
     46 O20         -4.3050    -3.4700     1.0800 o          1 V24      -0.816800
     47 O19         -4.3980    -1.4530     2.0220 o          1 V24      -0.816800
     48 O15         -2.2930     0.2410    -2.1150 o          1 V24      -0.640800
     49 C10         -4.6840    -0.0590    -1.1520 ca         1 V24      -0.270500
     50 C1          -8.6150     1.5380    -0.7290 cp         1 V24      -0.020000
     51 C3         -10.0960     3.3180    -0.0300 ca         1 V24      -0.135500
     52 H1          -7.9710     3.3720     0.1950 ha         1 V24       0.135500
     53 H2         -12.1930     2.9940    -0.3570 ha         1 V24       0.120000
     54 H3         -11.8580     0.7590    -1.3690 ha         1 V24       0.122500
     55 H4          -9.5970    -0.1580    -1.6190 ha         1 V24       0.135500
     56 H5          -6.3330     2.8740    -1.3430 ha         1 V24       0.126000
     57 H6          -4.0860     1.9660    -1.5940 ha         1 V24       0.164000
     58 H7          -5.5850    -1.9670    -0.7060 ha         1 V24       0.164000
     59 H8          -7.8270    -1.0480    -0.4550 ha         1 V24       0.126000
     60 H9          -1.8490    -1.7100     1.8740 h1         1 V24       0.054700
     61 H10         -2.1130    -3.7310    -0.3430 hc         1 V24       0.084700
     62 H11          0.4110    -2.2530     0.5690 hc         1 V24       0.021033
     63 H12          0.3520    -3.6300    -0.5250 hc         1 V24       0.021033
     64 H13         -0.3290    -2.0870    -1.0190 hc         1 V24       0.021033
     65 H14         -2.4640     0.4460     1.7840 h1         1 V24       0.072700
     66 H15         -2.4360     1.2810     0.2560 h1         1 V24       0.072700
     67 H16          2.5070     5.4050     0.1450 hc         1 V24       0.061033
     68 H17          1.3860     5.2410     1.4970 hc         1 V24       0.061033
     69 H18          2.9650     5.9620     1.7610 hc         1 V24       0.061033
     70 H19          3.2080     3.4140    -0.3910 hn         1 V24       0.315500
     71 H20          3.8780     1.4660     1.7350 h1         1 V24       0.138700
     72 H21          5.1480     1.8630    -1.0160 h1         1 V24       0.074700
     73 H22          8.3660     3.6080     1.2980 hc         1 V24       0.073367
     74 H23          7.7980     5.1780     0.7000 hc         1 V24       0.073367
     75 H24          7.0250     4.4090     2.0980 hc         1 V24       0.073367
     76 H25          5.8140    -0.1820     1.1540 h1         1 V24       0.107700
     77 H26          9.1950     0.6960    -1.5770 hc         1 V24       0.070367
     78 H27         10.1350    -0.2550    -0.4110 hc         1 V24       0.070367
     79 H28          9.0840    -1.0560    -1.5930 hc         1 V24       0.070367
     80 H29          4.5390    -0.5230    -1.6130 h1         1 V24       0.061700
     81 H30          5.9700    -2.4380    -0.8350 h1         1 V24       0.064700
     82 H31          5.0030    -2.5320     0.6470 h1         1 V24       0.064700
     83 H32          3.3810    -5.2010    -2.8810 hc         1 V24       0.074033
     84 H33          2.6840    -5.8960    -1.4240 hc         1 V24       0.074033
     85 H34          2.1190    -4.3210    -2.0230 hc         1 V24       0.074033
     86 H35          2.7640     0.9790    -1.0720 h2         1 V24       0.050700
     87 H36          0.3130     0.7690    -1.1650 h4         1 V24       0.200000
     88 H37         -2.1870    -4.5580     2.0150 hc         1 V24       0.021033
     89 H38         -0.7050    -5.0520     1.2050 hc         1 V24       0.021033
     90 H39         -0.6700    -3.7160     2.3490 hc         1 V24       0.021033
     91 H41        -10.2340     4.2930     0.4190 ha         1 V24       0.122500
     92 S13         -3.0530    -0.7330    -1.3380 sy         1 V24       1.333200
@<TRIPOS>BOND
     1     1    50 ar  
     2     1    51 ar  
     3     1    52 1   
     4     2     3 ar  
     5     2    51 ar  
     6     2    53 1   
     7     3     4 ar  
     8     3    54 1   
     9     4    50 ar  
    10     4    55 1   
    11     5     6 ar  
    12     5     9 ar  
    13     5    50 1   
    14     6     7 ar  
    15     6    56 1   
    16     7    49 ar  
    17     7    57 1   
    18     8     9 ar  
    19     8    49 ar  
    20     8    58 1   
    21     9    59 1   
    22    10    92 2   
    23    11    12 1   
    24    11    13 1   
    25    11    44 1   
    26    11    60 1   
    27    12    46 1   
    28    12    47 1   
    29    13    14 1   
    30    13    45 1   
    31    13    61 1   
    32    14    62 1   
    33    14    63 1   
    34    14    64 1   
    35    15    16 1   
    36    15    44 1   
    37    15    65 1   
    38    15    66 1   
    39    16    42 1   
    40    16    43 2   
    41    17    18 2   
    42    18    19 1   
    43    18    20 1   
    44    19    67 1   
    45    19    68 1   
    46    19    69 1   
    47    20    21 1   
    48    20    70 1   
    49    21    22 1   
    50    21    39 1   
    51    21    71 1   
    52    22    23 1   
    53    22    27 1   
    54    22    72 1   
    55    23    24 1   
    56    24    25 2   
    57    24    26 1   
    58    26    73 1   
    59    26    74 1   
    60    26    75 1   
    61    27    28 1   
    62    27    32 1   
    63    27    76 1   
    64    28    29 1   
    65    29    30 2   
    66    29    31 1   
    67    31    77 1   
    68    31    78 1   
    69    31    79 1   
    70    32    33 1   
    71    32    38 1   
    72    32    80 1   
    73    33    34 1   
    74    33    81 1   
    75    33    82 1   
    76    34    35 1   
    77    35    36 2   
    78    35    37 1   
    79    37    83 1   
    80    37    84 1   
    81    37    85 1   
    82    38    39 1   
    83    39    40 1   
    84    39    86 1   
    85    40    41 1   
    86    40    43 1   
    87    41    42 2   
    88    43    87 1   
    89    44    92 1   
    90    45    88 1   
    91    45    89 1   
    92    45    90 1   
    93    48    92 2   
    94    49    92 1   
    95    51    91 1   
@<TRIPOS>SUBSTRUCTURE
     1 V24         1 TEMP              0 ****  ****    0 ROOT
