@<TRIPOS>MOLECULE
V24
   92    95     1     0     0
SMALL
No Charge or Current Charge


@<TRIPOS>ATOM
      1 C2          -7.8740     3.4820     0.0030 ca         1 V24      -0.097500
      2 C4         -10.0140     3.8220     1.1120 ca         1 V24      -0.119000
      3 C5         -10.1980     2.4320     1.1760 ca         1 V24      -0.117500
      4 C6          -9.2200     1.5680     0.6540 ca         1 V24      -0.097500
      5 C7          -6.9950     1.1520    -0.5010 cp         1 V24      -0.007000
      6 C8          -6.2490     1.5000    -1.6550 ca         1 V24      -0.126500
      7 C9          -5.2700     0.6400    -2.1800 ca         1 V24       0.003000
      8 C11         -5.7440    -0.9650    -0.4110 ca         1 V24       0.003000
      9 C12         -6.7210    -0.0990     0.1070 ca         1 V24      -0.126500
     10 O14         -4.2180    -3.0720    -1.9790 o          1 V24      -0.570000
     11 C17         -1.9470    -2.5580    -0.2660 c3         1 V24       0.099500
     12 C18         -2.9760    -2.9860     0.8680 c          1 V24       0.696000
     13 C21         -1.2770    -3.7750    -1.0040 c3         1 V24      -0.054700
     14 C22         -0.3110    -3.3350    -2.1360 c3         1 V24      -0.076600
     15 C24         -2.3440    -0.0810    -0.5690 c3         1 V24       0.206500
     16 C25         -0.9670     0.3350    -0.0970 cc         1 V24       0.208300
     17 O52          2.8280     4.1900     2.2720 o          1 V24      -0.574100
     18 C50          2.6610     4.2540     1.0640 c          1 V24       0.609100
     19 C51          2.2030     5.5250     0.3650 c3         1 V24      -0.179100
     20 N49          2.8750     3.1810     0.2290 ns         1 V24      -0.510900
     21 C35          3.3550     1.8390     0.6520 c6         1 V24       0.058700
     22 C34          4.9000     1.6730     0.4480 c6         1 V24       0.135300
     23 O42          5.6290     2.6220     1.2620 os         1 V24      -0.434100
     24 C43          5.9330     3.8790     0.8110 c          1 V24       0.605100
     25 O45          5.7120     4.2860    -0.3210 o          1 V24      -0.492000
     26 C44          6.6690     4.6860     1.8680 c3         1 V24      -0.157100
     27 C33          5.3690     0.2180     0.7810 c6         1 V24       0.132300
     28 O41          6.7630     0.0260     0.4280 os         1 V24      -0.460100
     29 C46          7.7740     0.3810     1.2840 c          1 V24       0.599100
     30 O48          7.6140     0.7210     2.4460 o          1 V24      -0.460000
     31 C47          9.1380     0.1310     0.6610 c3         1 V24      -0.157100
     32 C32          4.4980    -0.8060     0.0040 c6         1 V24       0.170300
     33 C36          4.8270    -2.2800     0.3740 c3         1 V24       0.172600
     34 O37          4.0930    -3.1620    -0.5010 os         1 V24      -0.433100
     35 C38          4.2050    -4.5100    -0.2980 c          1 V24       0.600100
     36 O40          4.8870    -5.0270     0.5760 o          1 V24      -0.500000
     37 C39          3.3640    -5.2950    -1.2920 c3         1 V24      -0.156100
     38 O31          3.1060    -0.5850     0.3120 os         1 V24      -0.425000
     39 C30          2.6080     0.7000    -0.1100 c6         1 V24       0.312300
     40 N28          1.1390     0.6970     0.1120 na         1 V24       0.102800
     41 N27          0.5350     1.0840     1.2850 nd         1 V24      -0.191800
     42 N26         -0.7510     0.8730     1.1420 nc         1 V24      -0.340000
     43 C29          0.2050     0.2210    -0.7780 cd         1 V24      -0.180000
     44 N16         -2.3930    -1.4360    -1.1900 n3         1 V24      -0.747500
     45 C23         -0.5120    -4.7030    -0.0230 c3         1 V24      -0.076600
     46 O20         -3.5660    -4.0580     0.7980 o          1 V24      -0.711500
     47 O19         -3.1060    -2.2370     1.8290 o          1 V24      -0.711500
     48 O15         -3.3390    -1.2660    -3.5540 o          1 V24      -0.570000
     49 C10         -5.0100    -0.5950    -1.5550 ca         1 V24      -0.270500
     50 C1          -8.0370     2.0740     0.0560 cp         1 V24      -0.020000
     51 C3          -8.8520     4.3470     0.5260 ca         1 V24      -0.117500
     52 H1          -6.9750     3.9090    -0.4340 ha         1 V24       0.117500
     53 H2         -10.7710     4.4910     1.5160 ha         1 V24       0.102000
     54 H3         -11.1000     2.0230     1.6260 ha         1 V24       0.104500
     55 H4          -9.3890     0.4950     0.7010 ha         1 V24       0.117500
     56 H5          -6.4400     2.4440    -2.1600 ha         1 V24       0.108000
     57 H6          -4.7190     0.9390    -3.0700 ha         1 V24       0.146000
     58 H7          -5.5570    -1.9170     0.0820 ha         1 V24       0.146000
     59 H8          -7.2620    -0.3990     1.0000 ha         1 V24       0.108000
     60 H9          -1.1120    -2.1570     0.3210 h1         1 V24       0.054700
     61 H10         -2.0670    -4.3780    -1.4670 hc         1 V24       0.084700
     62 H11          0.4940    -2.7060    -1.7380 hc         1 V24       0.021033
     63 H12          0.1460    -4.2100    -2.6150 hc         1 V24       0.021033
     64 H13         -0.8350    -2.7740    -2.9180 hc         1 V24       0.021033
     65 H14         -3.0440    -0.0160     0.2760 h1         1 V24       0.072700
     66 H15         -2.6510     0.6810    -1.2970 h1         1 V24       0.072700
     67 H16          2.9300     5.7850    -0.4130 hc         1 V24       0.061033
     68 H17          1.3020     5.3060    -0.2200 hc         1 V24       0.061033
     69 H18          2.0420     6.3550     1.0620 hc         1 V24       0.061033
     70 H19          2.7240     3.3550    -0.7590 hn         1 V24       0.315500
     71 H20          3.1440     1.7110     1.7240 h1         1 V24       0.138700
     72 H21          5.1410     1.8530    -0.6110 h1         1 V24       0.074700
     73 H22          7.5180     4.0980     2.2330 hc         1 V24       0.073367
     74 H23          6.9780     5.6720     1.5070 hc         1 V24       0.073367
     75 H24          6.0350     4.7550     2.7590 hc         1 V24       0.073367
     76 H25          5.2330     0.0300     1.8570 h1         1 V24       0.107700
     77 H26          9.2270     0.7380    -0.2470 hc         1 V24       0.070367
     78 H27          9.9620     0.3130     1.3600 hc         1 V24       0.070367
     79 H28          9.1630    -0.8890     0.2610 hc         1 V24       0.070367
     80 H29          4.6540    -0.6780    -1.0770 h1         1 V24       0.061700
     81 H30          5.9070    -2.4460     0.2640 h1         1 V24       0.064700
     82 H31          4.5580    -2.4510     1.4250 h1         1 V24       0.064700
     83 H32          3.6760    -5.0250    -2.3070 hc         1 V24       0.074033
     84 H33          3.4120    -6.3770    -1.1250 hc         1 V24       0.074033
     85 H34          2.3360    -4.9190    -1.2600 hc         1 V24       0.074033
     86 H35          2.7530     0.8160    -1.1930 h2         1 V24       0.050700
     87 H36          0.4310    -0.1720    -1.7610 h4         1 V24       0.182000
     88 H37         -1.1680    -5.1060     0.7550 hc         1 V24       0.021033
     89 H38         -0.0790    -5.5560    -0.5590 hc         1 V24       0.021033
     90 H39          0.3050    -4.1600     0.4680 hc         1 V24       0.021033
     91 H41         -8.7050     5.4240     0.4790 ha         1 V24       0.104500
     92 S13         -3.7480    -1.7040    -2.2150 sy         1 V24       1.191600
@<TRIPOS>BOND
     1     1    50 ar  
     2     1    51 ar  
     3     1    52 1   
     4     2     3 ar  
     5     2    51 ar  
     6     2    53 1   
     7     3     4 ar  
     8     3    54 1   
     9     4    50 ar  
    10     4    55 1   
    11     5     6 ar  
    12     5     9 ar  
    13     5    50 1   
    14     6     7 ar  
    15     6    56 1   
    16     7    49 ar  
    17     7    57 1   
    18     8     9 ar  
    19     8    49 ar  
    20     8    58 1   
    21     9    59 1   
    22    10    92 2   
    23    11    12 1   
    24    11    13 1   
    25    11    44 1   
    26    11    60 1   
    27    12    46 1   
    28    12    47 1   
    29    13    14 1   
    30    13    45 1   
    31    13    61 1   
    32    14    62 1   
    33    14    63 1   
    34    14    64 1   
    35    15    16 1   
    36    15    44 1   
    37    15    65 1   
    38    15    66 1   
    39    16    42 1   
    40    16    43 2   
    41    17    18 2   
    42    18    19 1   
    43    18    20 1   
    44    19    67 1   
    45    19    68 1   
    46    19    69 1   
    47    20    21 1   
    48    20    70 1   
    49    21    22 1   
    50    21    39 1   
    51    21    71 1   
    52    22    23 1   
    53    22    27 1   
    54    22    72 1   
    55    23    24 1   
    56    24    25 2   
    57    24    26 1   
    58    26    73 1   
    59    26    74 1   
    60    26    75 1   
    61    27    28 1   
    62    27    32 1   
    63    27    76 1   
    64    28    29 1   
    65    29    30 2   
    66    29    31 1   
    67    31    77 1   
    68    31    78 1   
    69    31    79 1   
    70    32    33 1   
    71    32    38 1   
    72    32    80 1   
    73    33    34 1   
    74    33    81 1   
    75    33    82 1   
    76    34    35 1   
    77    35    36 2   
    78    35    37 1   
    79    37    83 1   
    80    37    84 1   
    81    37    85 1   
    82    38    39 1   
    83    39    40 1   
    84    39    86 1   
    85    40    41 1   
    86    40    43 1   
    87    41    42 2   
    88    43    87 1   
    89    44    92 1   
    90    45    88 1   
    91    45    89 1   
    92    45    90 1   
    93    48    92 2   
    94    49    92 1   
    95    51    91 1   
@<TRIPOS>SUBSTRUCTURE
     1 V24         1 TEMP              0 ****  ****    0 ROOT
