@<TRIPOS>MOLECULE
V25
   35    36     1     0     0
SMALL
abcg2


@<TRIPOS>ATOM
      1 CAA          8.0870    15.3130    16.3730 c3         1 V25      -0.097100
      2 CAL          7.7520    16.1810    17.5610 c3         1 V25       0.168600
      3 OAM          7.7890    15.3460    18.7310 os         1 V25      -0.436100
      4 CAN          7.4250    15.8640    19.8830 c          1 V25       0.630300
      5 OAE          7.1180    17.0210    20.0510 o          1 V25      -0.489000
      6 CAS          7.3900    14.8380    20.9420 cc         1 V25      -0.126300
      7 NAV          7.5020    15.1680    22.2760 na         1 V25      -0.045700
      8 CAB          8.0620    16.4110    22.7870 c3         1 V25       0.060900
      9 CAU          7.2230    14.0530    23.0140 ca         1 V25      -0.017200
     10 CAQ          7.1540    13.8360    24.3990 ca         1 V25       0.096000
     11 CL1          7.3660    15.1030    25.5460 cl         1 V25      -0.174000
     12 CAP          6.8500    12.5590    24.8380 ca         1 V25       0.146000
     13 CL2          6.7430    12.2350    26.5290 cl         1 V25      -0.177000
     14 CAJ          6.6040    11.5010    23.9500 ca         1 V25      -0.135000
     15 CAK          6.6470    11.7150    22.5950 ca         1 V25      -0.031000
     16 CAT          6.9560    12.9920    22.1230 ca         1 V25      -0.109800
     17 CAR          7.0720    13.5060    20.8010 cd         1 V25       0.006800
     18 CAO          6.8070    12.7230    19.5860 cf         1 V25      -0.143700
     19 CAH          5.4750    12.3310    19.3370 ch         1 V25       0.314700
     20 NAC          4.3720    12.0250    19.1590 n1         1 V25      -0.494000
     21 CAI          7.7790    12.2890    18.7290 c2         1 V25       0.142000
     22 NAD          9.0780    12.5220    18.8370 nv         1 V25      -0.962000
     23 HAA1         8.0770    15.9250    15.4710 hc         1 V25       0.046700
     24 HAA2         9.0770    14.8690    16.4660 hc         1 V25       0.046700
     25 HAA3         7.3580    14.5130    16.2450 hc         1 V25       0.046700
     26 HAL1         8.4750    16.9910    17.6720 h1         1 V25       0.053200
     27 HAL2         6.7600    16.6240    17.4570 h1         1 V25       0.053200
     28 HAB1         8.8300    16.1940    23.5230 h1         1 V25       0.062033
     29 HAB2         8.5270    16.9610    21.9800 h1         1 V25       0.062033
     30 HAB3         7.2950    17.0370    23.2370 h1         1 V25       0.062033
     31 HAJ          6.3710    10.5230    24.3470 ha         1 V25       0.133000
     32 HAK          6.4510    10.9050    21.9050 ha         1 V25       0.132000
     33 HAI          7.4940    11.6820    17.8780 h4         1 V25       0.190000
     34 HAD1         9.7190    12.1800    18.1450 hn         1 V25       0.492500
     35 HAD2         9.4540    13.1000    19.5700 hn         1 V25       0.492500
@<TRIPOS>BOND
     1     1     2 1   
     2     1    23 1   
     3     1    24 1   
     4     1    25 1   
     5     2     3 1   
     6     2    26 1   
     7     2    27 1   
     8     3     4 1   
     9     4     5 2   
    10     4     6 1   
    11     6     7 1   
    12     6    17 2   
    13     7     8 1   
    14     7     9 1   
    15     8    28 1   
    16     8    29 1   
    17     8    30 1   
    18     9    10 ar  
    19     9    16 ar  
    20    10    11 1   
    21    10    12 ar  
    22    12    13 1   
    23    12    14 ar  
    24    14    15 ar  
    25    14    31 1   
    26    15    16 ar  
    27    15    32 1   
    28    16    17 1   
    29    17    18 1   
    30    18    19 1   
    31    18    21 2   
    32    19    20 3   
    33    21    22 1   
    34    21    33 1   
    35    22    34 1   
    36    22    35 1   
@<TRIPOS>SUBSTRUCTURE
     1 V25         1 TEMP              0 ****  ****    0 ROOT
