@<TRIPOS>MOLECULE
V25
   35    36     1     0     0
SMALL
No Charge or Current Charge


@<TRIPOS>ATOM
      1 CAA          7.5330    15.2900    16.1180 c3         1 V25      -0.097100
      2 CAL          7.7540    16.1780    17.3520 c3         1 V25       0.168600
      3 OAM          7.5520    15.3530    18.5110 os         1 V25      -0.436100
      4 CAN          7.6860    15.9170    19.7530 c          1 V25       0.630300
      5 OAE          7.9830    17.0950    19.8990 o          1 V25      -0.489000
      6 CAS          7.4600    14.9810    20.8970 cc         1 V25      -0.126300
      7 NAV          7.5080    15.2180    22.2980 na         1 V25      -0.045700
      8 CAB          7.6980    16.5190    22.9720 c3         1 V25       0.060900
      9 CAU          7.2670    14.0360    23.0140 ca         1 V25      -0.017200
     10 CAQ          7.2550    13.7490    24.4050 ca         1 V25       0.096000
     11 Cl1          7.6000    14.9590    25.6510 cl         1 V25      -0.174000
     12 CAP          6.9660    12.4180    24.8030 ca         1 V25       0.146000
     13 Cl2          6.9260    11.9700    26.5100 cl         1 V25      -0.177000
     14 CAJ          6.7070    11.4150    23.8430 ca         1 V25      -0.135000
     15 CAK          6.7390    11.7200    22.4710 ca         1 V25      -0.031000
     16 CAT          7.0250    13.0410    22.1030 ca         1 V25      -0.109800
     17 CAR          7.1420    13.6230    20.7910 cd         1 V25       0.006800
     18 CAO          6.9580    12.8280    19.5710 cf         1 V25      -0.143700
     19 CAH          5.6630    12.8190    18.9690 ch         1 V25       0.314700
     20 NAC          4.6070    12.7670    18.4730 n1         1 V25      -0.494000
     21 CAI          7.9830    12.1250    19.0340 c2         1 V25       0.142000
     22 NAD          9.2610    12.1070    19.6130 nv         1 V25      -0.962000
     23 HAA1         7.6750    15.8720    15.2000 hc         1 V25       0.046700
     24 HAA2         8.2450    14.4560    16.1110 hc         1 V25       0.046700
     25 HAA3         6.5150    14.8820    16.1130 hc         1 V25       0.046700
     26 HAL1         8.7740    16.5870    17.3330 h1         1 V25       0.053200
     27 HAL2         7.0410    17.0140    17.3350 h1         1 V25       0.053200
     28 HAB1         8.6490    16.5150    23.5190 h1         1 V25       0.062033
     29 HAB2         7.7110    17.3430    22.2540 h1         1 V25       0.062033
     30 HAB3         6.8700    16.6970    23.6680 h1         1 V25       0.062033
     31 HAJ          6.4890    10.4000    24.1670 ha         1 V25       0.133000
     32 HAK          6.5530    10.9540    21.7220 ha         1 V25       0.132000
     33 HAI          7.8300    11.5400    18.1190 h4         1 V25       0.190000
     34 HAD1        10.0500    11.8420    19.0220 hn         1 V25       0.492500
     35 HAD2         9.4620    12.8050    20.3280 hn         1 V25       0.492500
@<TRIPOS>BOND
     1     1     2 1   
     2     1    23 1   
     3     1    24 1   
     4     1    25 1   
     5     2     3 1   
     6     2    26 1   
     7     2    27 1   
     8     3     4 1   
     9     4     5 2   
    10     4     6 1   
    11     6     7 1   
    12     6    17 2   
    13     7     8 1   
    14     7     9 1   
    15     8    28 1   
    16     8    29 1   
    17     8    30 1   
    18     9    10 ar  
    19     9    16 ar  
    20    10    11 1   
    21    10    12 ar  
    22    12    13 1   
    23    12    14 ar  
    24    14    15 ar  
    25    14    31 1   
    26    15    16 ar  
    27    15    32 1   
    28    16    17 1   
    29    17    18 1   
    30    18    19 1   
    31    18    21 2   
    32    19    20 3   
    33    21    22 1   
    34    21    33 1   
    35    22    34 1   
    36    22    35 1   
@<TRIPOS>SUBSTRUCTURE
     1 V25         1 TEMP              0 ****  ****    0 ROOT
