@<TRIPOS>MOLECULE
V27
   69    72     1     0     0
SMALL
abcg2


@<TRIPOS>ATOM
      1 O10        -31.0250   -21.3360    31.2430 oh         1 V27      -0.620000
      2 C2         -31.0900   -19.7770    29.5350 c3         1 V27       0.304000
      3 C5         -30.7760   -19.9850    31.0320 c3         1 V27       0.111300
      4 C6         -31.7550   -19.1940    31.9430 c3         1 V27       0.304000
      5 C12        -29.3220   -19.5960    31.2860 ca         1 V27      -0.152300
      6 C13        -28.9020   -18.2760    31.4310 ca         1 V27      -0.076000
      7 C15        -27.5650   -17.9880    31.6520 ca         1 V27      -0.102500
      8 C17        -28.3610   -20.6020    31.3350 ca         1 V27      -0.076000
      9 C19        -27.0280   -20.3050    31.5690 ca         1 V27      -0.102500
     10 C21        -26.6050   -18.9910    31.7420 ca         1 V27      -0.040300
     11 C22        -25.1890   -18.6230    32.0690 c5         1 V27      -0.034400
     12 C24        -24.8070   -18.6740    33.5830 c5         1 V27      -0.004700
     13 C25        -25.3920   -17.4950    34.3570 c3         1 V27      -0.083100
     14 F1         -30.9050   -18.5130    29.1570 f          1 V27      -0.097833
     15 F3         -32.3450   -20.1090    29.2300 f          1 V27      -0.097833
     16 F4         -30.2860   -20.5400    28.7980 f          1 V27      -0.097833
     17 F7         -31.3420   -19.2810    33.2100 f          1 V27      -0.097833
     18 F8         -31.8520   -17.8980    31.6380 f          1 V27      -0.097833
     19 F9         -32.9840   -19.6980    31.8910 f          1 V27      -0.097833
     20 C29        -25.2190   -20.0030    34.2020 ca         1 V27      -0.076300
     21 C30        -26.5300   -20.1900    34.6450 ca         1 V27      -0.102500
     22 C32        -26.9470   -21.3950    35.1890 ca         1 V27      -0.112500
     23 C34        -26.0600   -22.4570    35.3010 ca         1 V27      -0.106000
     24 C36        -24.7550   -22.2940    34.8610 ca         1 V27      -0.112500
     25 C38        -24.3430   -21.0830    34.3190 ca         1 V27      -0.102500
     26 C40        -23.2860   -18.5200    33.4710 c5         1 V27       0.108000
     27 N43        -22.9320   -19.2070    32.2360 n          1 V27      -0.421800
     28 C44        -24.1000   -19.4560    31.4020 c5         1 V27       0.107000
     29 C47        -21.7020   -19.5640    31.8260 c          1 V27       0.606100
     30 O48        -21.5350   -20.1640    30.7700 o          1 V27      -0.597100
     31 C49        -20.5280   -19.1460    32.6910 c6         1 V27      -0.135700
     32 C51        -19.3710   -20.1350    32.6000 c6         1 V27      -0.089900
     33 C54        -18.1780   -19.6330    33.4030 c6         1 V27       0.098000
     34 N57        -17.7800   -18.3070    32.9620 n          1 V27      -0.415800
     35 C58        -16.5590   -18.0850    32.4250 c          1 V27       0.610100
     36 C59        -16.2480   -16.6800    31.9610 c3         1 V27      -0.177100
     37 O63        -15.7220   -18.9740    32.3200 o          1 V27      -0.602100
     38 C64        -18.8380   -17.3220    33.0680 c6         1 V27       0.098000
     39 C67        -20.0610   -17.7470    32.2660 c6         1 V27      -0.089900
     40 H1         -30.6370   -21.6250    32.0780 ho         1 V27       0.479000
     41 H2         -29.5900   -17.4460    31.3750 ha         1 V27       0.129500
     42 H3         -27.2670   -16.9520    31.7610 ha         1 V27       0.124000
     43 H4         -28.6310   -21.6390    31.1940 ha         1 V27       0.129500
     44 H5         -26.3230   -21.1230    31.6160 ha         1 V27       0.124000
     45 H6         -25.0400   -17.5820    31.7610 hc         1 V27       0.062700
     46 H7         -25.0960   -17.5320    35.4060 hc         1 V27       0.043700
     47 H8         -25.0370   -16.5520    33.9380 hc         1 V27       0.043700
     48 H9         -26.4800   -17.4740    34.3220 hc         1 V27       0.043700
     49 H10        -27.2530   -19.3900    34.5600 ha         1 V27       0.115000
     50 H11        -27.9710   -21.5050    35.5210 ha         1 V27       0.114500
     51 H12        -26.3830   -23.3990    35.7240 ha         1 V27       0.115000
     52 H13        -24.0470   -23.1080    34.9390 ha         1 V27       0.114500
     53 H14        -23.3170   -21.0030    33.9860 ha         1 V27       0.115000
     54 H15        -22.7700   -18.9320    34.3380 h1         1 V27       0.049700
     55 H16        -23.0250   -17.4590    33.4130 h1         1 V27       0.049700
     56 H17        -24.3340   -20.5230    31.3860 h1         1 V27       0.063200
     57 H18        -23.9290   -19.1420    30.3720 h1         1 V27       0.063200
     58 H19        -20.8340   -19.0860    33.7410 hc         1 V27       0.053700
     59 H20        -19.6720   -21.1110    32.9880 hc         1 V27       0.061200
     60 H21        -19.0730   -20.2780    31.5600 hc         1 V27       0.061200
     61 H22        -17.3370   -20.3130    33.3040 h1         1 V27       0.053950
     62 H23        -18.4370   -19.5840    34.4660 h1         1 V27       0.053950
     63 H24        -15.2210   -16.6450    31.6080 hc         1 V27       0.059700
     64 H25        -16.8990   -16.3700    31.1410 hc         1 V27       0.059700
     65 H26        -16.3630   -15.9490    32.7610 hc         1 V27       0.059700
     66 H27        -18.4950   -16.3480    32.7300 h1         1 V27       0.053950
     67 H28        -19.1120   -17.2100    34.1220 h1         1 V27       0.053950
     68 H29        -20.8520   -17.0080    32.4140 hc         1 V27       0.061200
     69 H30        -19.8150   -17.7480    31.2000 hc         1 V27       0.061200
@<TRIPOS>BOND
     1     1     3 1   
     2     1    40 1   
     3     2     3 1   
     4     2    14 1   
     5     2    15 1   
     6     2    16 1   
     7     3     4 1   
     8     3     5 1   
     9     4    17 1   
    10     4    18 1   
    11     4    19 1   
    12     5     6 ar  
    13     5     8 ar  
    14     6     7 ar  
    15     6    41 1   
    16     7    10 ar  
    17     7    42 1   
    18     8     9 ar  
    19     8    43 1   
    20     9    10 ar  
    21     9    44 1   
    22    10    11 1   
    23    11    12 1   
    24    11    28 1   
    25    11    45 1   
    26    12    13 1   
    27    12    20 1   
    28    12    26 1   
    29    13    46 1   
    30    13    47 1   
    31    13    48 1   
    32    20    21 ar  
    33    20    25 ar  
    34    21    22 ar  
    35    21    49 1   
    36    22    23 ar  
    37    22    50 1   
    38    23    24 ar  
    39    23    51 1   
    40    24    25 ar  
    41    24    52 1   
    42    25    53 1   
    43    26    27 1   
    44    26    54 1   
    45    26    55 1   
    46    27    28 1   
    47    27    29 1   
    48    28    56 1   
    49    28    57 1   
    50    29    30 2   
    51    29    31 1   
    52    31    32 1   
    53    31    39 1   
    54    31    58 1   
    55    32    33 1   
    56    32    59 1   
    57    32    60 1   
    58    33    34 1   
    59    33    61 1   
    60    33    62 1   
    61    34    35 1   
    62    34    38 1   
    63    35    36 1   
    64    35    37 2   
    65    36    63 1   
    66    36    64 1   
    67    36    65 1   
    68    38    39 1   
    69    38    66 1   
    70    38    67 1   
    71    39    68 1   
    72    39    69 1   
@<TRIPOS>SUBSTRUCTURE
     1 V27         1 TEMP              0 ****  ****    0 ROOT
