@<TRIPOS>MOLECULE
V27
   69    72     1     0     0
SMALL
No Charge or Current Charge


@<TRIPOS>ATOM
      1 O10        -31.1490   -21.1750    31.7500 oh         1 V27      -0.620000
      2 C2         -31.0530   -20.1900    29.4930 c3         1 V27       0.304000
      3 C5         -30.8820   -19.9370    31.0440 c3         1 V27       0.111300
      4 C6         -31.9330   -18.8690    31.5690 c3         1 V27       0.304000
      5 C12        -29.3970   -19.5670    31.3410 ca         1 V27      -0.152300
      6 C13        -28.9590   -18.2350    31.5360 ca         1 V27      -0.076000
      7 C15        -27.6090   -17.9460    31.7900 ca         1 V27      -0.102500
      8 C17        -28.4150   -20.5850    31.3890 ca         1 V27      -0.076000
      9 C19        -27.0650   -20.2910    31.6410 ca         1 V27      -0.102500
     10 C21        -26.6370   -18.9620    31.8540 ca         1 V27      -0.040300
     11 C22        -25.1760   -18.5570    32.1430 c5         1 V27      -0.034400
     12 C24        -24.8150   -18.6890    33.6680 c5         1 V27      -0.004700
     13 C25        -25.3510   -17.5040    34.5190 c3         1 V27      -0.083100
     14 F1         -30.6980   -19.1010    28.7700 f          1 V27      -0.097833
     15 F3         -32.3300   -20.4990    29.1640 f          1 V27      -0.097833
     16 F4         -30.2760   -21.2160    29.0690 f          1 V27      -0.097833
     17 F7         -31.6750   -18.5250    32.8540 f          1 V27      -0.097833
     18 F8         -31.9400   -17.7330    30.8330 f          1 V27      -0.097833
     19 F9         -33.1970   -19.3590    31.5430 f          1 V27      -0.097833
     20 C29        -25.2760   -20.0910    34.2000 ca         1 V27      -0.076300
     21 C30        -26.5710   -20.2360    34.7600 ca         1 V27      -0.102500
     22 C32        -27.0320   -21.4710    35.2460 ca         1 V27      -0.112500
     23 C34        -26.2080   -22.6020    35.1890 ca         1 V27      -0.106000
     24 C36        -24.9230   -22.4920    34.6420 ca         1 V27      -0.112500
     25 C38        -24.4620   -21.2570    34.1550 ca         1 V27      -0.102500
     26 C40        -23.2450   -18.6450    33.5770 c5         1 V27       0.108000
     27 N43        -22.9370   -19.1840    32.2230 n          1 V27      -0.421800
     28 C44        -24.1500   -19.4850    31.4360 c5         1 V27       0.107000
     29 C47        -21.6490   -19.5640    31.7860 c          1 V27       0.606100
     30 O48        -21.5150   -20.1460    30.7170 o          1 V27      -0.597100
     31 C49        -20.4000   -19.1370    32.6060 c6         1 V27      -0.135700
     32 C51        -19.2040   -20.1290    32.5280 c6         1 V27      -0.089900
     33 C54        -18.0110   -19.6220    33.3720 c6         1 V27       0.098000
     34 N57        -17.6370   -18.2380    32.9760 n          1 V27      -0.415800
     35 C58        -16.4340   -17.9540    32.2840 c          1 V27       0.610100
     36 C59        -16.1200   -16.5090    31.8900 c3         1 V27      -0.177100
     37 O63        -15.6330   -18.8420    32.0220 o          1 V27      -0.602100
     38 C64        -18.7500   -17.2640    33.1560 c6         1 V27       0.098000
     39 C67        -19.9750   -17.6720    32.3040 c6         1 V27      -0.089900
     40 H1         -30.8110   -21.0630    32.6650 ho         1 V27       0.479000
     41 H2         -29.6480   -17.3980    31.4930 ha         1 V27       0.129500
     42 H3         -27.3140   -16.9100    31.9410 ha         1 V27       0.124000
     43 H4         -28.6910   -21.6250    31.2290 ha         1 V27       0.129500
     44 H5         -26.3680   -21.1210    31.6920 ha         1 V27       0.124000
     45 H6         -24.9940   -17.5270    31.8110 hc         1 V27       0.062700
     46 H7         -25.1120   -17.6430    35.5800 hc         1 V27       0.043700
     47 H8         -24.9040   -16.5550    34.2020 hc         1 V27       0.043700
     48 H9         -26.4360   -17.3840    34.4280 hc         1 V27       0.043700
     49 H10        -27.2520   -19.3910    34.8060 ha         1 V27       0.115000
     50 H11        -28.0330   -21.5500    35.6630 ha         1 V27       0.114500
     51 H12        -26.5640   -23.5590    35.5630 ha         1 V27       0.115000
     52 H13        -24.2800   -23.3680    34.5930 ha         1 V27       0.114500
     53 H14        -23.4610   -21.2360    33.7370 ha         1 V27       0.115000
     54 H15        -22.7720   -19.2130    34.3890 h1         1 V27       0.049700
     55 H16        -22.8780   -17.6130    33.6470 h1         1 V27       0.049700
     56 H17        -24.3820   -20.5530    31.5070 h1         1 V27       0.063200
     57 H18        -24.0340   -19.2260    30.3750 h1         1 V27       0.063200
     58 H19        -20.7150   -19.0990    33.6550 hc         1 V27       0.053700
     59 H20        -19.5120   -21.1250    32.8770 hc         1 V27       0.061200
     60 H21        -18.8820   -20.2460    31.4840 hc         1 V27       0.061200
     61 H22        -17.1620   -20.3110    33.2620 h1         1 V27       0.053950
     62 H23        -18.2890   -19.6240    34.4360 h1         1 V27       0.053950
     63 H24        -15.1370   -16.4080    31.4180 hc         1 V27       0.059700
     64 H25        -16.9130   -16.1370    31.2310 hc         1 V27       0.059700
     65 H26        -16.2100   -15.8650    32.7720 hc         1 V27       0.059700
     66 H27        -18.4510   -16.2410    32.8990 h1         1 V27       0.053950
     67 H28        -19.0360   -17.2510    34.2180 h1         1 V27       0.053950
     68 H29        -20.8080   -16.9810    32.4970 hc         1 V27       0.061200
     69 H30        -19.7270   -17.5720    31.2390 hc         1 V27       0.061200
@<TRIPOS>BOND
     1     1     3 1   
     2     1    40 1   
     3     2     3 1   
     4     2    14 1   
     5     2    15 1   
     6     2    16 1   
     7     3     4 1   
     8     3     5 1   
     9     4    17 1   
    10     4    18 1   
    11     4    19 1   
    12     5     6 ar  
    13     5     8 ar  
    14     6     7 ar  
    15     6    41 1   
    16     7    10 ar  
    17     7    42 1   
    18     8     9 ar  
    19     8    43 1   
    20     9    10 ar  
    21     9    44 1   
    22    10    11 1   
    23    11    12 1   
    24    11    28 1   
    25    11    45 1   
    26    12    13 1   
    27    12    20 1   
    28    12    26 1   
    29    13    46 1   
    30    13    47 1   
    31    13    48 1   
    32    20    21 ar  
    33    20    25 ar  
    34    21    22 ar  
    35    21    49 1   
    36    22    23 ar  
    37    22    50 1   
    38    23    24 ar  
    39    23    51 1   
    40    24    25 ar  
    41    24    52 1   
    42    25    53 1   
    43    26    27 1   
    44    26    54 1   
    45    26    55 1   
    46    27    28 1   
    47    27    29 1   
    48    28    56 1   
    49    28    57 1   
    50    29    30 2   
    51    29    31 1   
    52    31    32 1   
    53    31    39 1   
    54    31    58 1   
    55    32    33 1   
    56    32    59 1   
    57    32    60 1   
    58    33    34 1   
    59    33    61 1   
    60    33    62 1   
    61    34    35 1   
    62    34    38 1   
    63    35    36 1   
    64    35    37 2   
    65    36    63 1   
    66    36    64 1   
    67    36    65 1   
    68    38    39 1   
    69    38    66 1   
    70    38    67 1   
    71    39    68 1   
    72    39    69 1   
@<TRIPOS>SUBSTRUCTURE
     1 V27         1 TEMP              0 ****  ****    0 ROOT
