@<TRIPOS>MOLECULE
V29
   30    31     1     0     0
SMALL
abcg2


@<TRIPOS>ATOM
      1 C7          24.5200     8.7550   -34.8450 c5         1 V29       0.033200
      2 C8          25.0410     9.9120   -33.9650 c5         1 V29      -0.092400
      3 C9          25.4380    11.0040   -34.9750 c5         1 V29       0.140600
      4 C1          18.7550     8.4180   -35.1920 ca         1 V29      -0.127000
      5 C5          19.1340     9.0940   -37.4710 ca         1 V29      -0.127000
      6 C4          20.4850     8.7850   -37.3320 ca         1 V29      -0.098000
      7 C3          20.9850     8.2910   -36.1290 ca         1 V29      -0.061300
      8 C2          20.1040     8.1130   -35.0590 ca         1 V29      -0.098000
      9 C11         24.7230     7.3760   -34.1510 c          1 V29       0.725000
     10 C10         25.3850     8.9710   -36.0930 c5         1 V29       0.126600
     11 O           25.3970    10.3930   -36.2810 os         1 V29      -0.504000
     12 N           23.0900     8.9790   -35.1070 n7         1 V29      -0.832400
     13 C           18.2650     8.9100   -36.4010 ca         1 V29      -0.130000
     14 H1          25.9100     9.5810   -33.3980 hc         1 V29       0.058700
     15 H2          24.2770    10.2400   -33.2630 hc         1 V29       0.058700
     16 H3          26.4440    11.3850   -34.7800 h1         1 V29       0.020700
     17 H4          24.7440    11.8460   -34.9830 h1         1 V29       0.020700
     18 H10         21.1600     8.9270   -38.1690 ha         1 V29       0.123000
     19 H11         20.4840     7.7330   -34.1190 ha         1 V29       0.123000
     20 H12         24.9820     8.5200   -36.9980 h1         1 V29       0.053200
     21 H13         26.3980     8.5940   -35.9260 h1         1 V29       0.053200
     22 H14         22.9780     9.8930   -35.5380 hn         1 V29       0.383000
     23 H16         17.2140     9.1470   -36.5050 ha         1 V29       0.093000
     24 O1          24.0580     7.1670   -33.1080 o          1 V29      -0.718000
     25 C6          22.4500     7.9790   -35.9660 c3         1 V29       0.204100
     26 O2          25.5460     6.5850   -34.6760 o          1 V29      -0.718000
     27 H6          18.0830     8.2710   -34.3550 ha         1 V29       0.097500
     28 H8          22.5650     7.0060   -35.4820 h1         1 V29       0.047200
     29 H9          22.9120     7.9020   -36.9590 h1         1 V29       0.047200
     30 H7          18.7610     9.4770   -38.4130 ha         1 V29       0.097500
@<TRIPOS>BOND
     1     1     2 1   
     2     1     9 1   
     3     1    10 1   
     4     1    12 1   
     5     2     3 1   
     6     2    14 1   
     7     2    15 1   
     8     3    11 1   
     9     3    16 1   
    10     3    17 1   
    11     4     8 ar  
    12     4    13 ar  
    13     4    27 1   
    14     5     6 ar  
    15     5    13 ar  
    16     5    30 1   
    17     6     7 ar  
    18     6    18 1   
    19     7     8 ar  
    20     7    25 1   
    21     8    19 1   
    22     9    24 1   
    23     9    26 1   
    24    10    11 1   
    25    10    20 1   
    26    10    21 1   
    27    12    22 1   
    28    12    25 1   
    29    13    23 1   
    30    25    28 1   
    31    25    29 1   
@<TRIPOS>SUBSTRUCTURE
     1 V29         1 TEMP              0 ****  ****    0 ROOT
