@<TRIPOS>MOLECULE
V29
   30    31     1     0     0
SMALL
No Charge or Current Charge


@<TRIPOS>ATOM
      1 C7          24.5620     8.7200   -34.7980 c5         1 V29       0.033200
      2 C8          25.0660     9.9480   -33.9710 c5         1 V29      -0.092400
      3 C9          25.3500    11.0360   -35.0580 c5         1 V29       0.140600
      4 C1          18.5850     8.3470   -35.3250 ca         1 V29      -0.127000
      5 C5          19.2270     9.2800   -37.4780 ca         1 V29      -0.127000
      6 C4          20.5640     8.9170   -37.2370 ca         1 V29      -0.098000
      7 C3          20.9190     8.2660   -36.0380 ca         1 V29      -0.061300
      8 C2          19.9220     7.9850   -35.0830 ca         1 V29      -0.098000
      9 C11         24.9870     7.3360   -34.1270 c          1 V29       0.725000
     10 C10         25.3700     8.9620   -36.1080 c5         1 V29       0.126600
     11 O           25.2000    10.3770   -36.3360 os         1 V29      -0.504000
     12 N           23.0840     8.9450   -35.0660 n7         1 V29      -0.832400
     13 C           18.2370     8.9940   -36.5230 ca         1 V29      -0.130000
     14 H1          25.9930     9.7150   -33.4340 hc         1 V29       0.058700
     15 H2          24.3440    10.2850   -33.2180 hc         1 V29       0.058700
     16 H3          26.3700    11.4320   -34.9720 h1         1 V29       0.020700
     17 H4          24.6420    11.8730   -35.0040 h1         1 V29       0.020700
     18 H10         21.3250     9.1420   -37.9810 ha         1 V29       0.123000
     19 H11         20.1850     7.4860   -34.1520 ha         1 V29       0.123000
     20 H12         25.0000     8.3890   -36.9690 h1         1 V29       0.053200
     21 H13         26.4400     8.7450   -35.9750 h1         1 V29       0.053200
     22 H14         23.0020     9.7980   -35.6290 hn         1 V29       0.383000
     23 H16         17.2030     9.2750   -36.7100 ha         1 V29       0.093000
     24 O1          24.9760     7.2250   -32.9070 o          1 V29      -0.718000
     25 C6          22.3670     7.8680   -35.7790 c3         1 V29       0.204100
     26 O2          25.3560     6.4100   -34.8410 o          1 V29      -0.718000
     27 H6          17.8190     8.1270   -34.5840 ha         1 V29       0.097500
     28 H8          22.3830     6.9390   -35.1920 h1         1 V29       0.047200
     29 H9          22.8500     7.6500   -36.7420 h1         1 V29       0.047200
     30 H7          18.9590     9.7810   -38.4050 ha         1 V29       0.097500
@<TRIPOS>BOND
     1     1     2 1   
     2     1     9 1   
     3     1    10 1   
     4     1    12 1   
     5     2     3 1   
     6     2    14 1   
     7     2    15 1   
     8     3    11 1   
     9     3    16 1   
    10     3    17 1   
    11     4     8 ar  
    12     4    13 ar  
    13     4    27 1   
    14     5     6 ar  
    15     5    13 ar  
    16     5    30 1   
    17     6     7 ar  
    18     6    18 1   
    19     7     8 ar  
    20     7    25 1   
    21     8    19 1   
    22     9    24 1   
    23     9    26 1   
    24    10    11 1   
    25    10    20 1   
    26    10    21 1   
    27    12    22 1   
    28    12    25 1   
    29    13    23 1   
    30    25    28 1   
    31    25    29 1   
@<TRIPOS>SUBSTRUCTURE
     1 V29         1 TEMP              0 ****  ****    0 ROOT
