@<TRIPOS>MOLECULE
V2A
   69    71     1     0     0
SMALL
No Charge or Current Charge


@<TRIPOS>ATOM
      1 C10         -0.6250   -10.7520    60.2340 c3         1 V2A      -0.027100
      2 C16         -2.6600    -9.7990    61.4250 ca         1 V2A      -0.106500
      3 C26         -1.7350   -12.9650    52.5880 ca         1 V2A      -0.157300
      4 C28         -0.3590   -15.1750    53.0130 c3         1 V2A      -0.022100
      5 O24         -1.6240    -9.4850    55.9890 o          1 V2A      -0.604100
      6 C02         -2.5750   -12.1660    51.7790 ca         1 V2A       0.329000
      7 C03         -2.9740   -10.8970    52.2110 ca         1 V2A      -0.200000
      8 C04         -2.5510   -10.3980    53.4500 ca         1 V2A      -0.008000
      9 C05         -1.7140   -11.1680    54.2820 ca         1 V2A      -0.199600
     10 C06         -1.2770   -10.5960    55.6140 c          1 V2A       0.623700
     11 C08          0.0560   -11.0240    57.7300 c3         1 V2A       0.058700
     12 C09         -1.0320   -11.2240    58.8200 c3         1 V2A      -0.085400
     13 C11         -1.7730   -10.8750    61.2260 ca         1 V2A      -0.083300
     14 C12         -1.9640   -12.0700    61.9470 ca         1 V2A      -0.106500
     15 C13         -3.0270   -12.1860    62.8590 ca         1 V2A      -0.109000
     16 C14         -3.9070   -11.1080    63.0550 ca         1 V2A      -0.110000
     17 C15         -3.7230    -9.9150    62.3370 ca         1 V2A      -0.109000
     18 C17          1.3580   -11.8140    58.0300 c          1 V2A       0.598100
     19 C19          3.4870   -11.5900    59.2880 c3         1 V2A       0.206000
     20 C20          4.0530   -10.4500    60.1620 c3         1 V2A      -0.106767
     21 C21          4.4130   -11.8330    58.0680 c3         1 V2A      -0.106767
     22 C22          3.2710   -12.8600    60.1510 c3         1 V2A      -0.106767
     23 C25         -1.3120   -12.4530    53.8400 ca         1 V2A      -0.041000
     24 C29          0.0010   -16.5260    52.4080 ca         1 V2A      -0.122300
     25 C30         -0.8010   -17.6560    52.6640 ca         1 V2A      -0.068000
     26 C31         -0.4690   -18.9000    52.1010 ca         1 V2A      -0.174000
     27 C32          0.6630   -19.0230    51.2820 ca         1 V2A       0.138100
     28 C34          1.4660   -17.9010    51.0210 ca         1 V2A      -0.174000
     29 C35          1.1360   -16.6550    51.5830 ca         1 V2A      -0.068000
     30 N01         -3.0210   -12.6030    50.5600 nv         1 V2A      -1.085000
     31 N07         -0.4580   -11.3860    56.3900 ns         1 V2A      -0.496900
     32 O18          2.2090   -11.0870    58.8360 os         1 V2A      -0.456100
     33 O23          1.5880   -12.9280    57.5750 o          1 V2A      -0.493000
     34 O33          0.9760   -20.2340    50.7410 oh         1 V2A      -0.534100
     35 H1           0.2300   -11.3410    60.5890 hc         1 V2A       0.055700
     36 H2          -0.2810    -9.7120    60.1840 hc         1 V2A       0.055700
     37 H3          -2.5260    -8.8720    60.8710 ha         1 V2A       0.111000
     38 H4           0.5550   -14.5960    53.1970 hc         1 V2A       0.048200
     39 H5          -0.8410   -15.3240    53.9880 hc         1 V2A       0.048200
     40 H6          -3.6190   -10.2860    51.5840 ha         1 V2A       0.116000
     41 H7          -2.8770    -9.4060    53.7600 ha         1 V2A       0.134000
     42 H8           0.3370    -9.9630    57.7110 h1         1 V2A       0.089700
     43 H9          -1.9350   -10.6770    58.5220 hc         1 V2A       0.055700
     44 H10         -1.3090   -12.2850    58.8610 hc         1 V2A       0.055700
     45 H11         -1.2880   -12.9100    61.8000 ha         1 V2A       0.111000
     46 H12         -3.1690   -13.1120    63.4140 ha         1 V2A       0.112500
     47 H13         -4.7300   -11.1980    63.7610 ha         1 V2A       0.112000
     48 H14         -4.4050    -9.0800    62.4860 ha         1 V2A       0.112500
     49 H15          3.3830   -10.2340    61.0030 hc         1 V2A       0.048478
     50 H16          5.0340   -10.7200    60.5690 hc         1 V2A       0.048478
     51 H17          4.1710    -9.5310    59.5750 hc         1 V2A       0.048478
     52 H18          5.4470   -11.9860    58.4000 hc         1 V2A       0.048478
     53 H19          4.1210   -12.7230    57.5010 hc         1 V2A       0.048478
     54 H20          4.4000   -10.9710    57.3910 hc         1 V2A       0.048478
     55 H21          2.4880   -12.6930    60.9000 hc         1 V2A       0.048478
     56 H22          2.9910   -13.7270    59.5440 hc         1 V2A       0.048478
     57 H23          4.1950   -13.1210    60.6820 hc         1 V2A       0.048478
     58 H24         -0.6690   -13.0550    54.4720 ha         1 V2A       0.108000
     59 H25         -2.1990   -14.9720    51.9180 hc         1 V2A       0.046200
     60 H26         -0.8080   -14.2610    51.1210 hc         1 V2A       0.046200
     61 H27         -1.6820   -17.5690    53.2970 ha         1 V2A       0.113500
     62 H28         -1.0910   -19.7690    52.3010 ha         1 V2A       0.121000
     63 H29          2.3440   -17.9860    50.3860 ha         1 V2A       0.121000
     64 H30          1.7610   -15.7890    51.3750 ha         1 V2A       0.113500
     65 H31         -2.8780   -13.5740    50.2950 hn         1 V2A       0.460500
     66 H32         -3.7520   -12.0870    50.0750 hn         1 V2A       0.460500
     67 H33         -0.2000   -12.2890    56.0120 hn         1 V2A       0.322500
     68 H34          1.7900   -20.1320    50.2020 ho         1 V2A       0.464000
     69 C27         -1.3030   -14.3630    52.0950 c3         1 V2A      -0.023100
@<TRIPOS>BOND
     1     1    12 1   
     2     1    13 1   
     3     1    35 1   
     4     1    36 1   
     5     2    13 ar  
     6     2    17 ar  
     7     2    37 1   
     8     3     6 ar  
     9     3    23 ar  
    10     3    69 1   
    11     4    24 1   
    12     4    38 1   
    13     4    39 1   
    14     4    69 1   
    15     5    10 2   
    16     6     7 ar  
    17     6    30 1   
    18     7     8 ar  
    19     7    40 1   
    20     8     9 ar  
    21     8    41 1   
    22     9    10 1   
    23     9    23 ar  
    24    10    31 1   
    25    11    12 1   
    26    11    18 1   
    27    11    31 1   
    28    11    42 1   
    29    12    43 1   
    30    12    44 1   
    31    13    14 ar  
    32    14    15 ar  
    33    14    45 1   
    34    15    16 ar  
    35    15    46 1   
    36    16    17 ar  
    37    16    47 1   
    38    17    48 1   
    39    18    32 1   
    40    18    33 2   
    41    19    20 1   
    42    19    21 1   
    43    19    22 1   
    44    19    32 1   
    45    20    49 1   
    46    20    50 1   
    47    20    51 1   
    48    21    52 1   
    49    21    53 1   
    50    21    54 1   
    51    22    55 1   
    52    22    56 1   
    53    22    57 1   
    54    23    58 1   
    55    24    25 ar  
    56    24    29 ar  
    57    25    26 ar  
    58    25    61 1   
    59    26    27 ar  
    60    26    62 1   
    61    27    28 ar  
    62    27    34 1   
    63    28    29 ar  
    64    28    63 1   
    65    29    64 1   
    66    30    65 1   
    67    30    66 1   
    68    31    67 1   
    69    34    68 1   
    70    59    69 1   
    71    60    69 1   
@<TRIPOS>SUBSTRUCTURE
     1 V2A         1 TEMP              0 ****  ****    0 ROOT
