@<TRIPOS>MOLECULE
V2A
   69    71     1     0     0
SMALL
abcg2


@<TRIPOS>ATOM
      1 C10         -0.3260   -11.9400    60.1020 c3         1 V2A      -0.027100
      2 C16         -2.0170   -13.6110    60.9310 ca         1 V2A      -0.106500
      3 C26         -0.2480   -13.2190    52.4100 ca         1 V2A      -0.157300
      4 C28         -1.7520   -15.1230    53.2640 c3         1 V2A      -0.022100
      5 O24          0.6900    -9.6770    55.4910 o          1 V2A      -0.604100
      6 C02          0.4550   -12.5670    51.3710 ca         1 V2A       0.329000
      7 C03          1.1420   -11.3790    51.6540 ca         1 V2A      -0.200000
      8 C04          1.1410   -10.8410    52.9240 ca         1 V2A      -0.008000
      9 C05          0.4740   -11.4830    53.9640 ca         1 V2A      -0.199600
     10 C06          0.4900   -10.8740    55.3130 c          1 V2A       0.623700
     11 C08          0.2310   -11.2000    57.7040 c3         1 V2A       0.058700
     12 C09         -0.0630   -12.3640    58.6570 c3         1 V2A      -0.085400
     13 C11         -0.7130   -13.1200    60.9500 ca         1 V2A      -0.083300
     14 C12          0.2290   -13.7680    61.7450 ca         1 V2A      -0.106500
     15 C13         -0.1200   -14.8790    62.5030 ca         1 V2A      -0.109000
     16 C14         -1.4230   -15.3590    62.4750 ca         1 V2A      -0.110000
     17 C15         -2.3720   -14.7200    61.6870 ca         1 V2A      -0.109000
     18 C17          1.5660   -10.5520    58.0620 c          1 V2A       0.598100
     19 C19          2.4730    -8.7550    59.4580 c3         1 V2A       0.206000
     20 C20          1.7370    -7.7400    60.3230 c3         1 V2A      -0.106767
     21 C21          3.2860    -8.0430    58.3860 c3         1 V2A      -0.106767
     22 C22          3.3430    -9.6480    60.3340 c3         1 V2A      -0.106767
     23 C25         -0.2160   -12.6640    53.6770 ca         1 V2A      -0.041000
     24 C29         -2.5290   -16.3340    52.8260 ca         1 V2A      -0.122300
     25 C30         -3.8040   -16.2060    52.2780 ca         1 V2A      -0.068000
     26 C31         -4.5220   -17.3070    51.8420 ca         1 V2A      -0.174000
     27 C32         -3.9700   -18.5820    51.9470 ca         1 V2A       0.138100
     28 C34         -2.6970   -18.7300    52.4890 ca         1 V2A      -0.174000
     29 C35         -1.9930   -17.6130    52.9200 ca         1 V2A      -0.068000
     30 N01          0.5050   -13.1060    50.1150 nv         1 V2A      -1.085000
     31 N07          0.2610   -11.7010    56.3550 ns         1 V2A      -0.496900
     32 O18          1.3840    -9.5130    58.8520 os         1 V2A      -0.456100
     33 O23          2.6260   -10.9940    57.6990 o          1 V2A      -0.493000
     34 O33         -4.7090   -19.6270    51.5170 oh         1 V2A      -0.534100
     35 H1           0.5560   -11.4620    60.5310 hc         1 V2A       0.055700
     36 H2          -1.1240   -11.1920    60.1180 hc         1 V2A       0.055700
     37 H3          -2.7650   -13.1180    60.3200 ha         1 V2A       0.111000
     38 H4          -1.0390   -15.4040    54.0420 hc         1 V2A       0.048200
     39 H5          -2.4360   -14.3980    53.7130 hc         1 V2A       0.048200
     40 H6           1.6780   -10.8760    50.8580 ha         1 V2A       0.116000
     41 H7           1.6740    -9.9180    53.1100 ha         1 V2A       0.134000
     42 H8          -0.5640   -10.4560    57.8030 h1         1 V2A       0.089700
     43 H9          -0.9490   -12.8790    58.2760 hc         1 V2A       0.055700
     44 H10          0.7610   -13.0830    58.6200 hc         1 V2A       0.055700
     45 H11          1.2480   -13.3990    61.7740 ha         1 V2A       0.111000
     46 H12          0.6240   -15.3660    63.1190 ha         1 V2A       0.112500
     47 H13         -1.6970   -16.2230    63.0660 ha         1 V2A       0.112000
     48 H14         -3.3910   -15.0840    61.6620 ha         1 V2A       0.112500
     49 H15          1.1150    -8.2350    61.0710 hc         1 V2A       0.048478
     50 H16          2.4560    -7.1120    60.8490 hc         1 V2A       0.048478
     51 H17          1.1020    -7.0900    59.7200 hc         1 V2A       0.048478
     52 H18          3.9860    -7.3580    58.8680 hc         1 V2A       0.048478
     53 H19          3.8640    -8.7330    57.7760 hc         1 V2A       0.048478
     54 H20          2.6410    -7.4540    57.7330 hc         1 V2A       0.048478
     55 H21          2.7380   -10.2230    61.0360 hc         1 V2A       0.048478
     56 H22          3.9570   -10.3350    59.7570 hc         1 V2A       0.048478
     57 H23          4.0130    -9.0180    60.9220 hc         1 V2A       0.048478
     58 H24         -0.7780   -13.1510    54.4640 ha         1 V2A       0.108000
     59 H25         -1.7390   -14.2700    51.2990 hc         1 V2A       0.046200
     60 H26         -0.3230   -15.2180    51.6670 hc         1 V2A       0.046200
     61 H27         -4.2510   -15.2220    52.1910 ha         1 V2A       0.113500
     62 H28         -5.5130   -17.1810    51.4230 ha         1 V2A       0.121000
     63 H29         -2.2540   -19.7150    52.5850 ha         1 V2A       0.121000
     64 H30         -1.0040   -17.7520    53.3430 ha         1 V2A       0.113500
     65 H31         -0.2280   -13.7370    49.8390 hn         1 V2A       0.460500
     66 H32          0.7850   -12.4880    49.3700 hn         1 V2A       0.460500
     67 H33          0.3130   -12.6980    56.2220 hn         1 V2A       0.322500
     68 H34         -4.2230   -20.4510    51.6370 ho         1 V2A       0.464000
     69 C27         -1.0110   -14.4780    52.0930 c3         1 V2A      -0.023100
@<TRIPOS>BOND
     1     1    12 1   
     2     1    13 1   
     3     1    35 1   
     4     1    36 1   
     5     2    13 ar  
     6     2    17 ar  
     7     2    37 1   
     8     3     6 ar  
     9     3    23 ar  
    10     3    69 1   
    11     4    24 1   
    12     4    38 1   
    13     4    39 1   
    14     4    69 1   
    15     5    10 2   
    16     6     7 ar  
    17     6    30 1   
    18     7     8 ar  
    19     7    40 1   
    20     8     9 ar  
    21     8    41 1   
    22     9    10 1   
    23     9    23 ar  
    24    10    31 1   
    25    11    12 1   
    26    11    18 1   
    27    11    31 1   
    28    11    42 1   
    29    12    43 1   
    30    12    44 1   
    31    13    14 ar  
    32    14    15 ar  
    33    14    45 1   
    34    15    16 ar  
    35    15    46 1   
    36    16    17 ar  
    37    16    47 1   
    38    17    48 1   
    39    18    32 1   
    40    18    33 2   
    41    19    20 1   
    42    19    21 1   
    43    19    22 1   
    44    19    32 1   
    45    20    49 1   
    46    20    50 1   
    47    20    51 1   
    48    21    52 1   
    49    21    53 1   
    50    21    54 1   
    51    22    55 1   
    52    22    56 1   
    53    22    57 1   
    54    23    58 1   
    55    24    25 ar  
    56    24    29 ar  
    57    25    26 ar  
    58    25    61 1   
    59    26    27 ar  
    60    26    62 1   
    61    27    28 ar  
    62    27    34 1   
    63    28    29 ar  
    64    28    63 1   
    65    29    64 1   
    66    30    65 1   
    67    30    66 1   
    68    31    67 1   
    69    34    68 1   
    70    59    69 1   
    71    60    69 1   
@<TRIPOS>SUBSTRUCTURE
     1 V2A         1 TEMP              0 ****  ****    0 ROOT
