@<TRIPOS>MOLECULE
V2C
   53    55     1     0     0
SMALL
bcc


@<TRIPOS>ATOM
      1 O01         -5.4430     0.3510    -1.3920 oh         1 V2C      -0.476100
      2 C02         -4.4700    -0.2800    -0.7190 ca         1 V2C       0.225100
      3 C03         -4.5000    -1.6460    -0.4920 ca         1 V2C      -0.278000
      4 C04         -3.4610    -2.2580     0.1940 ca         1 V2C       0.219100
      5 O05         -3.5460    -3.5750     0.3950 oh         1 V2C      -0.484100
      6 C06         -2.3890    -1.4790     0.6360 ca         1 V2C      -0.124600
      7 C08         -2.3300    -0.1080     0.4070 ca         1 V2C       0.062700
      8 C09         -1.1540     0.6990     0.8830 c3         1 V2C      -0.043100
      9 C10          0.0070     0.6950    -0.1270 c3         1 V2C      -0.096700
     10 C11          1.1540     1.4970     0.3830 cc         1 V2C       0.399800
     11 N12          1.2150     2.8060     0.3410 nd         1 V2C      -0.669000
     12 C13          2.3610     3.1500     1.0000 cd         1 V2C       0.283200
     13 C14          2.9980     2.0320     1.4450 cc         1 V2C      -0.248600
     14 N15          2.2200     0.9800     1.0460 na         1 V2C      -0.177900
     15 C16          2.5140    -0.4260     1.2800 c3         1 V2C       0.106600
     16 C17          3.0140    -1.1590     0.0600 ca         1 V2C      -0.153300
     17 C18          2.2720    -2.1930    -0.4920 ca         1 V2C      -0.079000
     18 C22          2.7050    -2.8860    -1.6160 ca         1 V2C      -0.170000
     19 C23          3.9110    -2.5340    -2.1960 ca         1 V2C      -0.076000
     20 C24          4.6850    -1.5140    -1.6570 ca         1 V2C      -0.222000
     21 C25          4.2480    -0.8310    -0.5250 ca         1 V2C       0.173100
     22 C26         -3.3910     0.4910    -0.2750 ca         1 V2C      -0.195600
     23 C27         -3.3840     1.9520    -0.5760 c          1 V2C       0.669700
     24 O28         -4.3690     2.5810     0.0400 os         1 V2C      -0.403900
     25 C29         -4.5180     3.9800    -0.2160 c3         1 V2C       0.127700
     26 O30         -2.5790     2.4950    -1.2900 o          1 V2C      -0.517000
     27 CL7         -1.1270    -2.2920     1.5160 cl         1 V2C      -0.122400
     28 H1          -6.1250    -0.2720    -1.6680 ho         1 V2C       0.435000
     29 H2          -5.3270    -2.2500    -0.8490 ha         1 V2C       0.156000
     30 H3          -2.7620    -3.9180     0.8430 ho         1 V2C       0.445000
     31 H4          -1.4490     1.7300     1.0730 hc         1 V2C       0.067700
     32 H5          -0.8060     0.3090     1.8420 hc         1 V2C       0.067700
     33 H6           0.3110    -0.3270    -0.3540 hc         1 V2C       0.072200
     34 H7          -0.3340     1.1330    -1.0650 hc         1 V2C       0.072200
     35 H8           2.6670     4.1790     1.1170 h4         1 V2C       0.033100
     36 H9           3.9150     1.8900     1.9900 h4         1 V2C       0.173000
     37 H10          3.2430    -0.4700     2.0890 h1         1 V2C       0.063200
     38 H11          1.6140    -0.9130     1.6540 h1         1 V2C       0.063200
     39 H12          1.3310    -2.4700    -0.0300 ha         1 V2C       0.133000
     40 H13          2.1050    -3.6860    -2.0280 ha         1 V2C       0.136000
     41 H14          4.2670    -3.0560    -3.0760 ha         1 V2C       0.131000
     42 H15          5.6300    -1.2690    -2.1240 ha         1 V2C       0.137000
     43 H17         -4.7160     4.1700    -1.2710 h1         1 V2C       0.049033
     44 H18         -5.3700     4.3010     0.3760 h1         1 V2C       0.049033
     45 H19         -3.6330     4.5370     0.0900 h1         1 V2C       0.049033
     46 O1           4.9450     0.1450     0.0770 os         1 V2C      -0.326900
     47 C2           6.1720     0.5810    -0.4920 c3         1 V2C       0.142400
     48 C3           6.7240     1.6920     0.3680 c3         1 V2C      -0.096100
     49 H16          6.8820    -0.2520    -0.5430 h1         1 V2C       0.035700
     50 H20          6.0060     0.9350    -1.5150 h1         1 V2C       0.035700
     51 H21          6.0400     2.5390     0.4110 hc         1 V2C       0.049033
     52 H22          6.9200     1.3500     1.3840 hc         1 V2C       0.049033
     53 H23          7.6650     2.0390    -0.0570 hc         1 V2C       0.049033
@<TRIPOS>BOND
     1     1     2 1   
     2     1    28 1   
     3     2     3 ar  
     4     2    22 ar  
     5     3     4 ar  
     6     3    29 1   
     7     4     5 1   
     8     4     6 ar  
     9     5    30 1   
    10     6     7 ar  
    11     6    27 1   
    12     7     8 1   
    13     7    22 ar  
    14     8     9 1   
    15     8    31 1   
    16     8    32 1   
    17     9    10 1   
    18     9    33 1   
    19     9    34 1   
    20    10    11 2   
    21    10    14 1   
    22    11    12 1   
    23    12    13 2   
    24    12    35 1   
    25    13    14 1   
    26    13    36 1   
    27    14    15 1   
    28    15    16 1   
    29    15    37 1   
    30    15    38 1   
    31    16    17 ar  
    32    16    21 ar  
    33    17    18 ar  
    34    17    39 1   
    35    18    19 ar  
    36    18    40 1   
    37    19    20 ar  
    38    19    41 1   
    39    20    21 ar  
    40    20    42 1   
    41    21    46 1   
    42    22    23 1   
    43    23    24 1   
    44    23    26 2   
    45    24    25 1   
    46    25    43 1   
    47    25    44 1   
    48    25    45 1   
    49    46    47 1   
    50    47    48 1   
    51    47    49 1   
    52    47    50 1   
    53    48    51 1   
    54    48    52 1   
    55    48    53 1   
@<TRIPOS>SUBSTRUCTURE
     1 V2C         1 TEMP              0 ****  ****    0 ROOT
