@<TRIPOS>MOLECULE
V2C
   53    55     1     0     0
SMALL
No Charge or Current Charge


@<TRIPOS>ATOM
      1 O01         -5.6940     0.0960    -1.4120 oh         1 V2C      -0.515100
      2 C02         -4.6360    -0.4400    -0.7430 ca         1 V2C       0.225100
      3 C03         -4.6280    -1.8110    -0.4670 ca         1 V2C      -0.260000
      4 C04         -3.5520    -2.3780     0.2190 ca         1 V2C       0.219100
      5 O05         -3.5620    -3.7170     0.4710 oh         1 V2C      -0.523100
      6 C06         -2.4720    -1.5780     0.6420 ca         1 V2C      -0.033000
      7 C08         -2.4730    -0.1860     0.3760 ca         1 V2C       0.062700
      8 C09         -1.2940     0.6940     0.8140 c3         1 V2C      -0.043100
      9 C10         -0.2220     0.8310    -0.2910 c3         1 V2C      -0.096700
     10 C11          0.9640     1.6500     0.1440 cc         1 V2C       0.399800
     11 N12          1.0360     2.9650     0.0080 nd         1 V2C      -0.669000
     12 C13          2.2440     3.3340     0.5580 cd         1 V2C       0.217900
     13 C14          2.9080     2.2380     1.0410 cc         1 V2C      -0.216000
     14 N15          2.0970     1.1560     0.7690 na         1 V2C      -0.156500
     15 C16          2.3900    -0.2510     1.1060 c3         1 V2C       0.135900
     16 C17          2.9950    -1.0520    -0.0480 ca         1 V2C      -0.153300
     17 C18          2.2260    -2.0500    -0.6790 ca         1 V2C      -0.061000
     18 C22          2.7590    -2.7950    -1.7430 ca         1 V2C      -0.152000
     19 C23          4.0690    -2.5570    -2.1820 ca         1 V2C      -0.058000
     20 C24          4.8510    -1.5750    -1.5520 ca         1 V2C      -0.204000
     21 C25          4.3210    -0.8210    -0.4810 ca         1 V2C       0.173100
     22 C26         -3.5690     0.3750    -0.3280 ca         1 V2C      -0.195600
     23 C27         -3.6130     1.8320    -0.6540 c          1 V2C       0.620700
     24 O28         -4.0020     2.6000     0.4130 os         1 V2C      -0.427100
     25 C29         -4.0670     4.0250     0.2310 c3         1 V2C       0.150900
     26 O30         -3.3170     2.2770    -1.7540 o          1 V2C      -0.468000
     27 Cl7         -1.1240    -2.3560     1.4900 cl         1 V2C      -0.214000
     28 H1          -6.3280    -0.6250    -1.6120 ho         1 V2C       0.474000
     29 H2          -5.4520    -2.4450    -0.7840 ha         1 V2C       0.138000
     30 H3          -2.7350    -3.9270     0.9570 ho         1 V2C       0.484000
     31 H4          -1.6360     1.6950     1.1000 hc         1 V2C       0.067700
     32 H5          -0.8270     0.3020     1.7240 hc         1 V2C       0.067700
     33 H6           0.1030    -0.1640    -0.6090 hc         1 V2C       0.072200
     34 H7          -0.6740     1.2940    -1.1760 hc         1 V2C       0.072200
     35 H8           2.5660     4.3680     0.5830 h4         1 V2C       0.033100
     36 H9           3.8670     2.1550     1.5360 h4         1 V2C       0.155000
     37 H10          3.0880    -0.2650     1.9530 h1         1 V2C       0.063200
     38 H11          1.4660    -0.7310     1.4500 h1         1 V2C       0.063200
     39 H12          1.2110    -2.2550    -0.3470 ha         1 V2C       0.115000
     40 H13          2.1550    -3.5610    -2.2260 ha         1 V2C       0.118000
     41 H14          4.4800    -3.1360    -3.0060 ha         1 V2C       0.113000
     42 H15          5.8650    -1.4190    -1.9070 ha         1 V2C       0.119000
     43 H17         -4.7830     4.2870    -0.5600 h1         1 V2C       0.049033
     44 H18         -4.3910     4.5150     1.1580 h1         1 V2C       0.049033
     45 H19         -3.0840     4.4300    -0.0420 h1         1 V2C       0.049033
     46 O1           5.0730     0.1370     0.1730 os         1 V2C      -0.350100
     47 C2           6.4180     0.4600    -0.2130 c3         1 V2C       0.165600
     48 C3           6.9090     1.5810     0.7160 c3         1 V2C      -0.096100
     49 H16          7.0740    -0.4150    -0.1090 h1         1 V2C       0.035700
     50 H20          6.4540     0.8070    -1.2540 h1         1 V2C       0.035700
     51 H21          6.2830     2.4740     0.6070 hc         1 V2C       0.049033
     52 H22          6.8790     1.2560     1.7630 hc         1 V2C       0.049033
     53 H23          7.9420     1.8520     0.4700 hc         1 V2C       0.049033
@<TRIPOS>BOND
     1     1     2 1   
     2     1    28 1   
     3     2     3 ar  
     4     2    22 ar  
     5     3     4 ar  
     6     3    29 1   
     7     4     5 1   
     8     4     6 ar  
     9     5    30 1   
    10     6     7 ar  
    11     6    27 1   
    12     7     8 1   
    13     7    22 ar  
    14     8     9 1   
    15     8    31 1   
    16     8    32 1   
    17     9    10 1   
    18     9    33 1   
    19     9    34 1   
    20    10    11 2   
    21    10    14 1   
    22    11    12 1   
    23    12    13 2   
    24    12    35 1   
    25    13    14 1   
    26    13    36 1   
    27    14    15 1   
    28    15    16 1   
    29    15    37 1   
    30    15    38 1   
    31    16    17 ar  
    32    16    21 ar  
    33    17    18 ar  
    34    17    39 1   
    35    18    19 ar  
    36    18    40 1   
    37    19    20 ar  
    38    19    41 1   
    39    20    21 ar  
    40    20    42 1   
    41    21    46 1   
    42    22    23 1   
    43    23    24 1   
    44    23    26 2   
    45    24    25 1   
    46    25    43 1   
    47    25    44 1   
    48    25    45 1   
    49    46    47 1   
    50    47    48 1   
    51    47    49 1   
    52    47    50 1   
    53    48    51 1   
    54    48    52 1   
    55    48    53 1   
@<TRIPOS>SUBSTRUCTURE
     1 V2C         1 TEMP              0 ****  ****    0 ROOT
