@<TRIPOS>MOLECULE
V2D
   35    36     1     0     0
SMALL
No Charge or Current Charge


@<TRIPOS>ATOM
      1 C1          12.4370   -12.6720   -22.0970 c3         1 V2D      -0.028800
      2 C2          12.2890   -12.1060   -20.6790 ca         1 V2D      -0.142300
      3 C3          13.1990   -11.1500   -20.1750 ca         1 V2D       0.163100
      4 C4          13.0580   -10.6500   -18.8720 ca         1 V2D      -0.239000
      5 C5          12.0130   -11.0980   -18.0520 ca         1 V2D      -0.039000
      6 C6          11.1080   -12.0540   -18.5350 ca         1 V2D      -0.230000
      7 C7          11.2420   -12.5630   -19.8450 ca         1 V2D       0.179100
      8 C10          9.4030   -14.1920   -19.5150 c3         1 V2D       0.111300
      9 C11          8.7150   -15.3040   -20.3190 ca         1 V2D       0.389300
     10 C12          9.4340   -16.3010   -21.0240 ca         1 V2D      -0.158600
     11 C13          8.7160   -17.2340   -21.7980 ca         1 V2D      -0.032000
     12 C14          7.3160   -17.1550   -21.8170 ca         1 V2D      -0.169000
     13 O8          14.2360   -10.6990   -20.9380 oh         1 V2D      -0.531100
     14 O9          10.3750   -13.5160   -20.3420 os         1 V2D      -0.348100
     15 C15          6.6790   -16.1510   -21.0760 ca         1 V2D       0.361900
     16 N16          7.3580   -15.2380   -20.3460 nb         1 V2D      -0.678000
     17 C17         10.9290   -16.3740   -20.9910 c          1 V2D       0.620700
     18 O18         11.5960   -16.6150   -21.9880 o          1 V2D      -0.480000
     19 O19         11.4530   -16.2940   -19.7260 os         1 V2D      -0.435100
     20 C20         12.8830   -16.3530   -19.5800 c3         1 V2D       0.150900
     21 H1          12.9700   -13.6300   -22.0790 hc         1 V2D       0.047700
     22 H2          11.4620   -12.8420   -22.5680 hc         1 V2D       0.047700
     23 H3          12.9880   -11.9970   -22.7620 hc         1 V2D       0.047700
     24 H4          13.7580    -9.9130   -18.4860 ha         1 V2D       0.115000
     25 H5          11.9070   -10.7080   -17.0410 ha         1 V2D       0.112000
     26 H6          10.3090   -12.3860   -17.8800 ha         1 V2D       0.121000
     27 H7           9.8810   -14.6380   -18.6340 h1         1 V2D       0.064700
     28 H8           8.6490   -13.4790   -19.1570 h1         1 V2D       0.064700
     29 H9           9.2320   -18.0080   -22.3640 ha         1 V2D       0.137000
     30 H10          6.7270   -17.8610   -22.3950 ha         1 V2D       0.131000
     31 H11         14.7450   -10.0500   -20.4080 ho         1 V2D       0.464000
     32 H12          5.5930   -16.0670   -21.0720 h4         1 V2D       0.024100
     33 H13         13.1620   -16.2700   -18.5220 h1         1 V2D       0.051367
     34 H14         13.2790   -17.3030   -19.9620 h1         1 V2D       0.051367
     35 H15         13.3650   -15.5300   -20.1230 h1         1 V2D       0.051367
@<TRIPOS>BOND
     1     1     2 1   
     2     1    21 1   
     3     1    22 1   
     4     1    23 1   
     5     2     3 ar  
     6     2     7 ar  
     7     3     4 ar  
     8     3    13 1   
     9     4     5 ar  
    10     4    24 1   
    11     5     6 ar  
    12     5    25 1   
    13     6     7 ar  
    14     6    26 1   
    15     7    14 1   
    16     8     9 1   
    17     8    14 1   
    18     8    27 1   
    19     8    28 1   
    20     9    10 ar  
    21     9    16 ar  
    22    10    11 ar  
    23    10    17 1   
    24    11    12 ar  
    25    11    29 1   
    26    12    15 ar  
    27    12    30 1   
    28    13    31 1   
    29    15    16 ar  
    30    15    32 1   
    31    17    18 2   
    32    17    19 1   
    33    19    20 1   
    34    20    33 1   
    35    20    34 1   
    36    20    35 1   
@<TRIPOS>SUBSTRUCTURE
     1 V2D         1 TEMP              0 ****  ****    0 ROOT
