@<TRIPOS>MOLECULE
V2D
   35    36     1     0     0
SMALL
abcg2


@<TRIPOS>ATOM
      1 C1          12.3220   -12.7460   -22.0990 c3         1 V2D      -0.028800
      2 C2          12.2250   -12.2810   -20.6730 ca         1 V2D      -0.142300
      3 C3          13.2240   -11.4700   -20.1320 ca         1 V2D       0.163100
      4 C4          13.1660   -11.0200   -18.8150 ca         1 V2D      -0.239000
      5 C5          12.0930   -11.3880   -18.0250 ca         1 V2D      -0.039000
      6 C6          11.0850   -12.2020   -18.5220 ca         1 V2D      -0.230000
      7 C7          11.1640   -12.6520   -19.8380 ca         1 V2D       0.179100
      8 C10          9.2500   -14.0570   -19.5790 c3         1 V2D       0.111300
      9 C11          8.6710   -15.2160   -20.3440 ca         1 V2D       0.389300
     10 C12          9.4710   -16.1560   -21.0020 ca         1 V2D      -0.158600
     11 C13          8.8440   -17.1420   -21.7530 ca         1 V2D      -0.032000
     12 C14          7.4620   -17.2020   -21.7780 ca         1 V2D      -0.169000
     13 O8          14.2520   -11.1470   -20.9450 oh         1 V2D      -0.531100
     14 O9          10.2330   -13.4580   -20.3960 os         1 V2D      -0.348100
     15 C15          6.7580   -16.2500   -21.0590 ca         1 V2D       0.361900
     16 N16          7.3470   -15.2730   -20.3800 nb         1 V2D      -0.678000
     17 C17         10.9600   -16.1580   -20.9690 c          1 V2D       0.620700
     18 O18         11.6390   -16.3970   -21.9360 o          1 V2D      -0.480000
     19 O19         11.4400   -15.9340   -19.7590 os         1 V2D      -0.435100
     20 C20         12.8580   -15.8470   -19.6170 c3         1 V2D       0.150900
     21 H1          13.0500   -13.5530   -22.2090 hc         1 V2D       0.047700
     22 H2          11.3730   -13.1190   -22.4730 hc         1 V2D       0.047700
     23 H3          12.6410   -11.9380   -22.7570 hc         1 V2D       0.047700
     24 H4          13.9520   -10.3890   -18.4150 ha         1 V2D       0.115000
     25 H5          12.0350   -11.0380   -17.0030 ha         1 V2D       0.112000
     26 H6          10.2560   -12.4640   -17.8810 ha         1 V2D       0.121000
     27 H7           9.6740   -14.4070   -18.6340 h1         1 V2D       0.064700
     28 H8           8.4470   -13.3520   -19.3440 h1         1 V2D       0.064700
     29 H9           9.4330   -17.8710   -22.2950 ha         1 V2D       0.137000
     30 H10          6.9420   -17.9660   -22.3370 ha         1 V2D       0.131000
     31 H11         14.8800   -10.5850   -20.4790 ho         1 V2D       0.464000
     32 H12          5.6750   -16.2660   -21.0400 h4         1 V2D       0.024100
     33 H13         13.0360   -15.6020   -18.5740 h1         1 V2D       0.051367
     34 H14         13.3390   -16.7940   -19.8590 h1         1 V2D       0.051367
     35 H15         13.2700   -15.0590   -20.2470 h1         1 V2D       0.051367
@<TRIPOS>BOND
     1     1     2 1   
     2     1    21 1   
     3     1    22 1   
     4     1    23 1   
     5     2     3 ar  
     6     2     7 ar  
     7     3     4 ar  
     8     3    13 1   
     9     4     5 ar  
    10     4    24 1   
    11     5     6 ar  
    12     5    25 1   
    13     6     7 ar  
    14     6    26 1   
    15     7    14 1   
    16     8     9 1   
    17     8    14 1   
    18     8    27 1   
    19     8    28 1   
    20     9    10 ar  
    21     9    16 ar  
    22    10    11 ar  
    23    10    17 1   
    24    11    12 ar  
    25    11    29 1   
    26    12    15 ar  
    27    12    30 1   
    28    13    31 1   
    29    15    16 ar  
    30    15    32 1   
    31    17    18 2   
    32    17    19 1   
    33    19    20 1   
    34    20    33 1   
    35    20    34 1   
    36    20    35 1   
@<TRIPOS>SUBSTRUCTURE
     1 V2D         1 TEMP              0 ****  ****    0 ROOT
