@<TRIPOS>MOLECULE
V2E
   29    30     1     0     0
SMALL
bcc


@<TRIPOS>ATOM
      1 C03        -24.1790   -21.1400    -1.1490 ca         1 V2E      -0.211200
      2 C04        -22.9270   -20.4930    -1.1300 ca         1 V2E       0.247600
      3 C06        -21.3050   -18.9290    -0.2070 c6         1 V2E       0.180300
      4 C07        -21.0300   -18.2290     1.1310 c6         1 V2E       0.123900
      5 C09        -22.7130   -19.3190     2.3160 c6         1 V2E       0.123900
      6 C10        -22.4280   -20.4270     1.3000 c6         1 V2E       0.180300
      7 C11        -22.2170   -20.5390    -2.3420 ca         1 V2E      -0.178000
      8 C12        -22.6900   -21.2250    -3.4480 ca         1 V2E      -0.126600
      9 C13        -21.8570   -21.2230    -4.6700 c          1 V2E       0.578500
     10 C14        -23.8970   -21.9210    -3.4010 ca         1 V2E      -0.123000
     11 C15        -24.6340   -21.8720    -2.2390 ca         1 V2E      -0.056000
     12 N02        -25.1320   -20.9920    -0.0590 no         1 V2E       0.309200
     13 N05        -22.4110   -19.8560    -0.0350 nh         1 V2E      -0.661000
     14 O01        -25.7530   -21.9690     0.2860 o          1 V2E      -0.202000
     15 O08        -22.2150   -18.0750     1.8680 os         1 V2E      -0.376600
     16 O16        -25.2890   -19.8850     0.4010 o          1 V2E      -0.202000
     17 H1         -20.3830   -19.4260    -0.5360 h1         1 V2E       0.048700
     18 H2         -21.5760   -18.1960    -0.9700 h1         1 V2E       0.048700
     19 H3         -20.2750   -18.7810     1.7050 h1         1 V2E       0.056700
     20 H4         -20.6220   -17.2360     0.9410 h1         1 V2E       0.056700
     21 H5         -23.7850   -19.1950     2.4670 h1         1 V2E       0.056700
     22 H6         -22.2670   -19.6000     3.2790 h1         1 V2E       0.056700
     23 H7         -23.1480   -21.2350     1.4060 h1         1 V2E       0.048700
     24 H8         -21.4530   -20.8880     1.4980 h1         1 V2E       0.048700
     25 H9         -21.2550   -20.0500    -2.4160 ha         1 V2E       0.142000
     26 H10        -20.9330   -20.6240    -4.5970 h4         1 V2E      -0.004800
     27 H13        -24.2600   -22.4700    -4.2580 ha         1 V2E       0.165000
     28 H14        -25.5950   -22.3660    -2.1900 ha         1 V2E       0.166000
     29 O1         -22.1390   -21.8190    -5.6800 o          1 V2E      -0.496100
@<TRIPOS>BOND
     1     1     2 ar  
     2     1    11 ar  
     3     1    12 1   
     4     2     7 ar  
     5     2    13 1   
     6     3     4 1   
     7     3    13 1   
     8     3    17 1   
     9     3    18 1   
    10     4    15 1   
    11     4    19 1   
    12     4    20 1   
    13     5     6 1   
    14     5    15 1   
    15     5    21 1   
    16     5    22 1   
    17     6    13 1   
    18     6    23 1   
    19     6    24 1   
    20     7     8 ar  
    21     7    25 1   
    22     8     9 1   
    23     8    10 ar  
    24     9    26 1   
    25     9    29 2   
    26    10    11 ar  
    27    10    27 1   
    28    11    28 1   
    29    12    14 1   
    30    12    16 1   
@<TRIPOS>SUBSTRUCTURE
     1 V2E         1 TEMP              0 ****  ****    0 ROOT
