@<TRIPOS>MOLECULE
V2E
   29    30     1     0     0
SMALL
No Charge or Current Charge


@<TRIPOS>ATOM
      1 C03        -24.3200   -20.8060    -1.4470 ca         1 V2E      -0.211200
      2 C04        -22.9740   -20.4960    -1.1720 ca         1 V2E       0.386000
      3 C06        -22.2500   -18.4060     0.0450 c6         1 V2E       0.180300
      4 C07        -21.2090   -18.0510     1.1480 c6         1 V2E       0.147100
      5 C09        -21.7250   -20.0450     2.4000 c6         1 V2E       0.147100
      6 C10        -22.7960   -20.4900     1.3610 c6         1 V2E       0.180300
      7 C11        -21.9870   -20.8460    -2.1080 ca         1 V2E      -0.160000
      8 C12        -22.3140   -21.5140    -3.3070 ca         1 V2E      -0.126600
      9 C13        -21.2280   -21.8800    -4.2890 c          1 V2E       0.578500
     10 C14        -23.6640   -21.8340    -3.5620 ca         1 V2E      -0.105000
     11 C15        -24.6610   -21.4830    -2.6380 ca         1 V2E      -0.038000
     12 N02        -25.3900   -20.4160    -0.5110 no         1 V2E       0.689200
     13 N05        -22.5570   -19.8700     0.0190 nh         1 V2E      -0.799400
     14 O01        -26.2070   -21.2900    -0.1930 o          1 V2E      -0.392000
     15 O08        -21.6040   -18.6020     2.4280 os         1 V2E      -0.423000
     16 O16        -25.5640   -19.2080    -0.3080 o          1 V2E      -0.392000
     17 H1         -21.8530   -18.0830    -0.9290 h1         1 V2E       0.048700
     18 H2         -23.1710   -17.8340     0.2270 h1         1 V2E       0.048700
     19 H3         -20.2240   -18.4530     0.8710 h1         1 V2E       0.056700
     20 H4         -21.1190   -16.9600     1.2370 h1         1 V2E       0.056700
     21 H5         -22.0040   -20.4030     3.4010 h1         1 V2E       0.056700
     22 H6         -20.7510   -20.4840     2.1420 h1         1 V2E       0.056700
     23 H7         -23.7880   -20.2060     1.7400 h1         1 V2E       0.048700
     24 H8         -22.7760   -21.5870     1.2830 h1         1 V2E       0.048700
     25 H9         -20.9500   -20.6040    -1.8880 ha         1 V2E       0.124000
     26 H10        -20.1950   -21.5880    -3.9980 h4         1 V2E      -0.004800
     27 H13        -23.9440   -22.3510    -4.4780 ha         1 V2E       0.147000
     28 H14        -25.7000   -21.7270    -2.8540 ha         1 V2E       0.148000
     29 O1         -21.4410   -22.4620    -5.3480 o          1 V2E      -0.496100
@<TRIPOS>BOND
     1     1     2 ar  
     2     1    11 ar  
     3     1    12 1   
     4     2     7 ar  
     5     2    13 1   
     6     3     4 1   
     7     3    13 1   
     8     3    17 1   
     9     3    18 1   
    10     4    15 1   
    11     4    19 1   
    12     4    20 1   
    13     5     6 1   
    14     5    15 1   
    15     5    21 1   
    16     5    22 1   
    17     6    13 1   
    18     6    23 1   
    19     6    24 1   
    20     7     8 ar  
    21     7    25 1   
    22     8     9 1   
    23     8    10 ar  
    24     9    26 1   
    25     9    29 2   
    26    10    11 ar  
    27    10    27 1   
    28    11    28 1   
    29    12    14 1   
    30    12    16 1   
@<TRIPOS>SUBSTRUCTURE
     1 V2E         1 TEMP              0 ****  ****    0 ROOT
