@<TRIPOS>MOLECULE
V2F
   36    37     1     0     0
SMALL
No Charge or Current Charge


@<TRIPOS>ATOM
      1 C2          17.9190    -8.7880    14.2360 c          1 V2F       0.631700
      2 N1          16.6520    -9.2210    14.0840 nt         1 V2F      -0.588000
      3 C4          19.0570    -9.7320    13.8600 ca         1 V2F      -0.208600
      4 C5          18.7630   -11.0720    13.5030 ca         1 V2F      -0.055000
      5 C6          19.7810   -11.9700    13.1590 ca         1 V2F      -0.139000
      6 C7          21.1190   -11.5680    13.1650 ca         1 V2F       0.146100
      7 C9          23.4830   -12.2750    12.7740 c3         1 V2F       0.518000
      8 C13         21.4350   -10.2410    13.5170 ca         1 V2F      -0.136000
      9 C14         20.4210    -9.3130    13.8550 ca         1 V2F       0.059000
     10 C16         21.8910    -7.2080    14.0950 c          1 V2F       0.672100
     11 C19         22.5770    -4.8130    14.7280 ca         1 V2F       0.017000
     12 C20         22.0380    -3.6200    15.2480 ca         1 V2F      -0.153000
     13 C21         22.8380    -2.4760    15.3950 ca         1 V2F       0.154500
     14 C23         24.1890    -2.5080    15.0260 ca         1 V2F      -0.128000
     15 C24         24.7380    -3.6900    14.5110 ca         1 V2F       0.154500
     16 O3          18.0870    -7.6650    14.6810 o          1 V2F      -0.640100
     17 O8          22.0630   -12.5200    12.8230 os         1 V2F      -0.404100
     18 F10         23.9790   -11.9090    13.9780 f          1 V2F      -0.106333
     19 F11         24.1450   -13.3920    12.4000 f          1 V2F      -0.106333
     20 F12         23.8020   -11.3110    11.8790 f          1 V2F      -0.106333
     21 N15         20.7400    -7.9690    14.2040 ns         1 V2F      -0.174000
     22 O17         22.9360    -7.6030    13.5940 o          1 V2F      -0.600100
     23 N18         21.7070    -5.9320    14.6100 ns         1 V2F      -0.156000
     24 Cl22        22.1420    -0.9970    16.0440 cl         1 V2F      -0.189500
     25 Cl25        26.4340    -3.7370    14.0500 cl         1 V2F      -0.189500
     26 C26         23.9420    -4.8380    14.3620 ca         1 V2F      -0.153000
     27 H1          15.8930    -8.6060    14.3340 hn         1 V2F       0.322000
     28 H2          16.4660   -10.1380    13.7090 hn         1 V2F       0.322000
     29 H3          17.7420   -11.4460    13.4940 ha         1 V2F       0.120000
     30 H4          19.5320   -12.9940    12.8910 ha         1 V2F       0.142000
     31 H5          22.4700    -9.9320    13.5400 ha         1 V2F       0.167000
     32 H6          20.9910    -3.5740    15.5400 ha         1 V2F       0.149500
     33 H7          24.8080    -1.6220    15.1400 ha         1 V2F       0.148000
     34 H8          19.9540    -7.4700    14.6040 hn         1 V2F       0.198000
     35 H9          20.7780    -5.7630    14.9730 hn         1 V2F       0.161000
     36 H10         24.4080    -5.7320    13.9640 ha         1 V2F       0.149500
@<TRIPOS>BOND
     1     1     2 1   
     2     1     3 1   
     3     1    16 2   
     4     2    27 1   
     5     2    28 1   
     6     3     4 ar  
     7     3     9 ar  
     8     4     5 ar  
     9     4    29 1   
    10     5     6 ar  
    11     5    30 1   
    12     6     8 ar  
    13     6    17 1   
    14     7    17 1   
    15     7    18 1   
    16     7    19 1   
    17     7    20 1   
    18     8     9 ar  
    19     8    31 1   
    20     9    21 1   
    21    10    21 1   
    22    10    22 2   
    23    10    23 1   
    24    11    12 ar  
    25    11    23 1   
    26    11    26 ar  
    27    12    13 ar  
    28    12    32 1   
    29    13    14 ar  
    30    13    24 1   
    31    14    15 ar  
    32    14    33 1   
    33    15    25 1   
    34    15    26 ar  
    35    21    34 1   
    36    23    35 1   
    37    26    36 1   
@<TRIPOS>SUBSTRUCTURE
     1 V2F         1 TEMP              0 ****  ****    0 ROOT
