@<TRIPOS>MOLECULE
V2F
   36    37     1     0     0
SMALL
abcg2


@<TRIPOS>ATOM
      1 C2          18.0790    -8.9120    14.3900 c          1 V2F       0.631700
      2 N1          16.8970    -9.1560    13.8140 nt         1 V2F      -0.588000
      3 C4          19.2420    -9.7070    13.8890 ca         1 V2F      -0.208600
      4 C5          19.0460   -10.9950    13.3960 ca         1 V2F      -0.055000
      5 C6          20.0910   -11.7690    12.9260 ca         1 V2F      -0.139000
      6 C7          21.3620   -11.2270    12.9700 ca         1 V2F       0.146100
      7 C9          23.1040   -12.7680    13.2700 c3         1 V2F       0.518000
      8 C13         21.6100    -9.9650    13.4690 ca         1 V2F      -0.136000
      9 C14         20.5520    -9.1860    13.9400 ca         1 V2F       0.059000
     10 C16         21.7480    -7.0480    14.1230 c          1 V2F       0.672100
     11 C19         22.5290    -4.7770    14.7450 ca         1 V2F       0.017000
     12 C20         22.2150    -3.6890    15.5660 ca         1 V2F      -0.153000
     13 C21         22.9830    -2.5430    15.5090 ca         1 V2F       0.154500
     14 C23         24.0680    -2.4210    14.6560 ca         1 V2F      -0.128000
     15 C24         24.3550    -3.5120    13.8540 ca         1 V2F       0.154500
     16 O3          18.2070    -8.0860    15.2920 o          1 V2F      -0.640100
     17 O8          22.4280   -11.9500    12.4520 os         1 V2F      -0.404100
     18 F10         22.3290   -13.7060    13.8170 f          1 V2F      -0.106333
     19 F11         24.0400   -13.3690    12.5540 f          1 V2F      -0.106333
     20 F12         23.6970   -12.1210    14.2750 f          1 V2F      -0.106333
     21 N15         20.7640    -7.9300    14.4910 ns         1 V2F      -0.174000
     22 O17         22.5550    -7.2610    13.2390 o          1 V2F      -0.600100
     23 N18         21.7180    -5.8980    14.8690 ns         1 V2F      -0.156000
     24 CL22        22.5750    -1.2120    16.5350 cl         1 V2F      -0.189500
     25 CL25        25.7030    -3.4100    12.7720 cl         1 V2F      -0.189500
     26 C26         23.6190    -4.6850    13.8760 ca         1 V2F      -0.153000
     27 H1          16.0840    -8.6450    14.1210 hn         1 V2F       0.322000
     28 H2          16.7960    -9.7160    12.9850 hn         1 V2F       0.322000
     29 H3          18.0520   -11.4220    13.3880 ha         1 V2F       0.120000
     30 H4          19.9110   -12.7590    12.5310 ha         1 V2F       0.142000
     31 H5          22.6220    -9.5920    13.4930 ha         1 V2F       0.167000
     32 H6          21.3730    -3.7420    16.2440 ha         1 V2F       0.149500
     33 H7          24.6610    -1.5190    14.6200 ha         1 V2F       0.148000
     34 H8          19.9910    -7.6130    15.0700 hn         1 V2F       0.198000
     35 H9          21.0200    -5.8320    15.5960 hn         1 V2F       0.161000
     36 H10         23.8930    -5.5020    13.2320 ha         1 V2F       0.149500
@<TRIPOS>BOND
     1     1     2 1   
     2     1     3 1   
     3     1    16 2   
     4     2    27 1   
     5     2    28 1   
     6     3     4 ar  
     7     3     9 ar  
     8     4     5 ar  
     9     4    29 1   
    10     5     6 ar  
    11     5    30 1   
    12     6     8 ar  
    13     6    17 1   
    14     7    17 1   
    15     7    18 1   
    16     7    19 1   
    17     7    20 1   
    18     8     9 ar  
    19     8    31 1   
    20     9    21 1   
    21    10    21 1   
    22    10    22 2   
    23    10    23 1   
    24    11    12 ar  
    25    11    23 1   
    26    11    26 ar  
    27    12    13 ar  
    28    12    32 1   
    29    13    14 ar  
    30    13    24 1   
    31    14    15 ar  
    32    14    33 1   
    33    15    25 1   
    34    15    26 ar  
    35    21    34 1   
    36    23    35 1   
    37    26    36 1   
@<TRIPOS>SUBSTRUCTURE
     1 V2F         1 TEMP              0 ****  ****    0 ROOT
