@<TRIPOS>MOLECULE
V2H
   74    76     1     0     0
SMALL
No Charge or Current Charge


@<TRIPOS>ATOM
      1 O30         -4.8030     2.7810    -0.7520 oh         1 V2H      -0.656000
      2 CAN         -5.5330     2.4670     0.4350 c6         1 V2H       0.211500
      3 CAO         -6.9970     2.0940     0.0970 c6         1 V2H      -0.065400
      4 CAZ         -7.0940     0.7300    -0.6290 c6         1 V2H       0.175300
      5 OAG         -8.4690     0.3980    -0.8600 oh         1 V2H      -0.662000
      6 CAT         -4.8270     1.3180     1.1710 ce         1 V2H      -0.124200
      7 CAA         -4.1760     1.5180     2.3380 c2         1 V2H      -0.295000
      8 CAU         -4.9600    -0.0090     0.5370 ce         1 V2H      -0.067200
      9 CAS         -6.4110    -0.3810     0.2070 c6         1 V2H      -0.073200
     10 CAH         -3.9390    -0.8840     0.2990 cf         1 V2H      -0.162000
     11 CAI         -2.5170    -0.6330     0.5540 cf         1 V2H      -0.192000
     12 CAV         -1.4910    -1.5300     0.4910 c2         1 V2H      -0.077400
     13 CAM         -1.6680    -3.0260     0.1890 c6         1 V2H      -0.042200
     14 CAL         -0.7050    -3.5200    -0.9220 c6         1 V2H      -0.072400
     15 CAR          0.7630    -3.0680    -0.6800 c6         1 V2H      -0.062400
     16 CBC          0.8710    -1.5260    -0.4420 c5         1 V2H      -0.036000
     17 CBA         -0.0260    -1.1640     0.7920 c5         1 V2H      -0.036500
     18 CAF          0.4940    -0.7870    -1.7740 c3         1 V2H      -0.079100
     19 CBB          2.2370    -1.0180     0.1660 c5         1 V2H      -0.049700
     20 CAQ          1.8450     0.3800     0.7840 c5         1 V2H      -0.075400
     21 CAP          0.2980     0.3390     1.0050 c5         1 V2H      -0.070400
     22 CAY          3.5010    -0.9300    -0.7520 c3         1 V2H      -0.016500
     23 CAE          3.9430    -2.2620    -1.3960 c3         1 V2H      -0.082100
     24 CAK          4.6780    -0.3400     0.0040 c2         1 V2H      -0.219200
     25 CAJ          5.3300     0.7850    -0.3290 c2         1 V2H      -0.215200
     26 CAX          6.5070     1.3730     0.4280 c3         1 V2H      -0.023500
     27 CAD          6.0960     2.7440     1.0140 c3         1 V2H      -0.082100
     28 CAW          7.7890     1.4320    -0.4640 c3         1 V2H      -0.054700
     29 CAB          9.0170     2.0170     0.2780 c3         1 V2H      -0.087100
     30 CAC          8.1440     0.0470    -1.0620 c3         1 V2H      -0.087100
     31 HO30        -3.8560     2.7110    -0.5040 ho         1 V2H       0.444000
     32 HAN         -5.5540     3.3510     1.0910 h1         1 V2H       0.036700
     33 HAO         -7.5780     2.0550     1.0280 hc         1 V2H       0.062200
     34 HAOA        -7.4510     2.8830    -0.5180 hc         1 V2H       0.062200
     35 HAZ         -6.5650     0.8120    -1.5910 h1         1 V2H       0.050700
     36 HOAG        -8.4740    -0.4340    -1.3830 ho         1 V2H       0.441000
     37 HAA         -4.1050     2.5040     2.7990 ha         1 V2H       0.168500
     38 HAAA        -3.7000     0.6960     2.8740 ha         1 V2H       0.168500
     39 HAS         -6.9640    -0.5390     1.1430 hc         1 V2H       0.051700
     40 HASA        -6.4530    -1.3330    -0.3410 hc         1 V2H       0.051700
     41 HAH         -4.2100    -1.8390    -0.1470 ha         1 V2H       0.170000
     42 HAI         -2.2870     0.3960     0.8200 ha         1 V2H       0.174000
     43 HAM         -1.4630    -3.5890     1.1100 hc         1 V2H       0.046200
     44 HAMA        -2.6920    -3.2880    -0.0910 hc         1 V2H       0.046200
     45 HAL         -0.7460    -4.6160    -0.9830 hc         1 V2H       0.040200
     46 HALA        -1.0540    -3.1550    -1.8970 hc         1 V2H       0.040200
     47 HAR          1.1640    -3.6050     0.1910 hc         1 V2H       0.041200
     48 HARA         1.3680    -3.3830    -1.5370 hc         1 V2H       0.041200
     49 HBA          0.2870    -1.7290     1.6800 hc         1 V2H       0.052700
     50 HAF         -0.5680    -0.8940    -2.0220 hc         1 V2H       0.034700
     51 HAFA         0.7030     0.2870    -1.7390 hc         1 V2H       0.034700
     52 HAFB         1.0660    -1.1870    -2.6200 hc         1 V2H       0.034700
     53 HBB          2.5310    -1.6880     0.9840 hc         1 V2H       0.045700
     54 HAQ          2.3810     0.5540     1.7240 hc         1 V2H       0.042700
     55 HAQA         2.1120     1.2100     0.1190 hc         1 V2H       0.042700
     56 HAP         -0.2060     0.9890     0.2820 hc         1 V2H       0.043200
     57 HAPA         0.0120     0.6860     2.0040 hc         1 V2H       0.043200
     58 HAY          3.2640    -0.2530    -1.5820 hc         1 V2H       0.049700
     59 HAE          3.9780    -3.0680    -0.6540 hc         1 V2H       0.034033
     60 HAEA         3.2670    -2.5490    -2.2070 hc         1 V2H       0.034033
     61 HAEB         4.9420    -2.1600    -1.8370 hc         1 V2H       0.034033
     62 HAK          4.9830    -0.9140     0.8810 ha         1 V2H       0.166000
     63 HAJ          5.0270     1.3600    -1.2060 ha         1 V2H       0.163000
     64 HAX          6.7350     0.7210     1.2820 hc         1 V2H       0.047700
     65 HAD          6.8490     3.1230     1.7140 hc         1 V2H       0.033367
     66 HADA         5.9570     3.4840     0.2170 hc         1 V2H       0.033367
     67 HADB         5.1520     2.6550     1.5660 hc         1 V2H       0.033367
     68 HAW          7.5750     2.1000    -1.3090 hc         1 V2H       0.044700
     69 HAB          9.2330     1.4440     1.1880 hc         1 V2H       0.032200
     70 HABA         9.9070     1.9870    -0.3630 hc         1 V2H       0.032200
     71 HABB         8.8540     3.0640     0.5570 hc         1 V2H       0.032200
     72 HAC          7.3360    -0.3310    -1.7000 hc         1 V2H       0.032200
     73 HACA         9.0470     0.1110    -1.6810 hc         1 V2H       0.032200
     74 HACB         8.3250    -0.6860    -0.2670 hc         1 V2H       0.032200
@<TRIPOS>BOND
     1     1     2 1   
     2     1    31 1   
     3     2     3 1   
     4     2     6 1   
     5     2    32 1   
     6     3     4 1   
     7     3    33 1   
     8     3    34 1   
     9     4     5 1   
    10     4     9 1   
    11     4    35 1   
    12     5    36 1   
    13     6     7 2   
    14     6     8 1   
    15     7    37 1   
    16     7    38 1   
    17     8     9 1   
    18     8    10 2   
    19     9    39 1   
    20     9    40 1   
    21    10    11 1   
    22    10    41 1   
    23    11    12 2   
    24    11    42 1   
    25    12    13 1   
    26    12    17 1   
    27    13    14 1   
    28    13    43 1   
    29    13    44 1   
    30    14    15 1   
    31    14    45 1   
    32    14    46 1   
    33    15    16 1   
    34    15    47 1   
    35    15    48 1   
    36    16    17 1   
    37    16    18 1   
    38    16    19 1   
    39    17    21 1   
    40    17    49 1   
    41    18    50 1   
    42    18    51 1   
    43    18    52 1   
    44    19    20 1   
    45    19    22 1   
    46    19    53 1   
    47    20    21 1   
    48    20    54 1   
    49    20    55 1   
    50    21    56 1   
    51    21    57 1   
    52    22    23 1   
    53    22    24 1   
    54    22    58 1   
    55    23    59 1   
    56    23    60 1   
    57    23    61 1   
    58    24    25 2   
    59    24    62 1   
    60    25    26 1   
    61    25    63 1   
    62    26    27 1   
    63    26    28 1   
    64    26    64 1   
    65    27    65 1   
    66    27    66 1   
    67    27    67 1   
    68    28    29 1   
    69    28    30 1   
    70    28    68 1   
    71    29    69 1   
    72    29    70 1   
    73    29    71 1   
    74    30    72 1   
    75    30    73 1   
    76    30    74 1   
@<TRIPOS>SUBSTRUCTURE
     1 V2H         1 TEMP              0 ****  ****    0 ROOT
