@<TRIPOS>MOLECULE
V2H
   74    76     1     0     0
SMALL
bcc


@<TRIPOS>ATOM
      1 O30         -4.4870     2.6140    -1.0000 oh         1 V2H      -0.593800
      2 CAN         -5.2340     2.4970     0.1970 c6         1 V2H       0.188300
      3 CAO         -6.6710     2.1730    -0.1880 c6         1 V2H      -0.065400
      4 CAZ         -6.7960     0.7930    -0.8170 c6         1 V2H       0.152100
      5 OAG         -8.1630     0.5770    -1.1030 oh         1 V2H      -0.599800
      6 CAT         -4.6540     1.4070     1.0710 ce         1 V2H      -0.124200
      7 CAA         -4.0690     1.6910     2.2330 c2         1 V2H      -0.195000
      8 CAU         -4.8290     0.0420     0.5430 ce         1 V2H      -0.067200
      9 CAS         -6.2450    -0.2690     0.1380 c6         1 V2H      -0.073200
     10 CAH         -3.8410    -0.8580     0.3940 cf         1 V2H      -0.112000
     11 CAI         -2.4330    -0.6400     0.6660 cf         1 V2H      -0.142000
     12 CAV         -1.4650    -1.5700     0.6330 c2         1 V2H      -0.077400
     13 CAM         -1.6690    -3.0340     0.3590 c6         1 V2H      -0.042200
     14 CAL         -0.7420    -3.5440    -0.7500 c6         1 V2H      -0.072400
     15 CAR          0.7210    -3.1570    -0.5280 c6         1 V2H      -0.062400
     16 CBC          0.8800    -1.6500    -0.3100 c5         1 V2H      -0.036000
     17 CBA         -0.0240    -1.2550     0.8850 c5         1 V2H      -0.036500
     18 CAF          0.5000    -0.8720    -1.5720 c3         1 V2H      -0.079100
     19 CBB          2.2540    -1.1840     0.2260 c5         1 V2H      -0.049700
     20 CAQ          1.9380     0.1360     0.9740 c5         1 V2H      -0.075400
     21 CAP          0.4210     0.1540     1.2460 c5         1 V2H      -0.070400
     22 CAY          3.4090    -1.0120    -0.7700 c3         1 V2H      -0.016500
     23 CAE          3.7530    -2.2880    -1.5400 c3         1 V2H      -0.082100
     24 CAK          4.6350    -0.5180    -0.0560 c2         1 V2H      -0.169200
     25 CAJ          5.1700     0.6860    -0.2220 c2         1 V2H      -0.165200
     26 CAX          6.3870     1.2220     0.4710 c3         1 V2H      -0.023500
     27 CAD          5.9680     2.3460     1.4210 c3         1 V2H      -0.082100
     28 CAW          7.4350     1.6810    -0.5630 c3         1 V2H      -0.054700
     29 CAB          8.6580     2.3240     0.0860 c3         1 V2H      -0.087100
     30 CAC          7.8750     0.5200    -1.4500 c3         1 V2H      -0.087100
     31 HO30        -3.5660     2.7630    -0.7640 ho         1 V2H       0.405000
     32 HAN         -5.2220     3.4430     0.7560 h1         1 V2H       0.036700
     33 HAO         -7.2860     2.2120     0.7160 hc         1 V2H       0.062200
     34 HAOA        -7.0500     2.9400    -0.8690 hc         1 V2H       0.062200
     35 HAZ         -6.2050     0.7660    -1.7410 h1         1 V2H       0.050700
     36 HOAG        -8.2390    -0.2500    -1.5890 ho         1 V2H       0.402000
     37 HAA         -3.9840     2.7130     2.5830 ha         1 V2H       0.118500
     38 HAAA        -3.6700     0.9190     2.8790 ha         1 V2H       0.118500
     39 HAS         -6.8880    -0.2850     1.0270 hc         1 V2H       0.051700
     40 HASA        -6.2990    -1.2600    -0.3220 hc         1 V2H       0.051700
     41 HAH         -4.1280    -1.8270    -0.0010 ha         1 V2H       0.120000
     42 HAI         -2.1500     0.3770     0.9100 ha         1 V2H       0.124000
     43 HAM         -1.4410    -3.5850     1.2800 hc         1 V2H       0.046200
     44 HAMA        -2.7040    -3.2700     0.1110 hc         1 V2H       0.046200
     45 HAL         -0.8270    -4.6310    -0.8160 hc         1 V2H       0.040200
     46 HALA        -1.0860    -3.1560    -1.7130 hc         1 V2H       0.040200
     47 HAR          1.1050    -3.6810     0.3540 hc         1 V2H       0.041200
     48 HARA         1.3110    -3.5070    -1.3770 hc         1 V2H       0.041200
     49 HBA          0.2940    -1.9090     1.7120 hc         1 V2H       0.052700
     50 HAF         -0.5510    -1.0000    -1.8320 hc         1 V2H       0.034700
     51 HAFA         0.6730     0.2000    -1.4640 hc         1 V2H       0.034700
     52 HAFB         1.0880    -1.2080    -2.4290 hc         1 V2H       0.034700
     53 HBB          2.5690    -1.9340     0.9660 hc         1 V2H       0.045700
     54 HAQ          2.5180     0.2060     1.8940 hc         1 V2H       0.042700
     55 HAQA         2.2350     0.9980     0.3720 hc         1 V2H       0.042700
     56 HAP         -0.0700     0.9000     0.6180 hc         1 V2H       0.043200
     57 HAPA         0.1780     0.4080     2.2790 hc         1 V2H       0.043200
     58 HAY          3.1240    -0.2410    -1.4960 hc         1 V2H       0.049700
     59 HAE          3.9060    -3.1310    -0.8640 hc         1 V2H       0.034033
     60 HAEA         2.9640    -2.5640    -2.2390 hc         1 V2H       0.034033
     61 HAEB         4.6680    -2.1530    -2.1200 hc         1 V2H       0.034033
     62 HAK          5.1090    -1.2180     0.6320 ha         1 V2H       0.116000
     63 HAJ          4.6850     1.3780    -0.9120 ha         1 V2H       0.113000
     64 HAX          6.8350     0.4160     1.0680 hc         1 V2H       0.047700
     65 HAD          6.8020     2.7050     2.0240 hc         1 V2H       0.033367
     66 HADA         5.5650     3.1970     0.8680 hc         1 V2H       0.033367
     67 HADB         5.1930     2.0000     2.1060 hc         1 V2H       0.033367
     68 HAW          6.9530     2.4340    -1.2000 hc         1 V2H       0.044700
     69 HAB          9.1180     1.6460     0.8090 hc         1 V2H       0.032200
     70 HABA         9.4110     2.5600    -0.6680 hc         1 V2H       0.032200
     71 HABB         8.4180     3.2520     0.6050 hc         1 V2H       0.032200
     72 HAC          7.0320     0.0460    -1.9530 hc         1 V2H       0.032200
     73 HACA         8.5770     0.8570    -2.2150 hc         1 V2H       0.032200
     74 HACB         8.3770    -0.2490    -0.8560 hc         1 V2H       0.032200
@<TRIPOS>BOND
     1     1     2 1   
     2     1    31 1   
     3     2     3 1   
     4     2     6 1   
     5     2    32 1   
     6     3     4 1   
     7     3    33 1   
     8     3    34 1   
     9     4     5 1   
    10     4     9 1   
    11     4    35 1   
    12     5    36 1   
    13     6     7 2   
    14     6     8 1   
    15     7    37 1   
    16     7    38 1   
    17     8     9 1   
    18     8    10 2   
    19     9    39 1   
    20     9    40 1   
    21    10    11 1   
    22    10    41 1   
    23    11    12 2   
    24    11    42 1   
    25    12    13 1   
    26    12    17 1   
    27    13    14 1   
    28    13    43 1   
    29    13    44 1   
    30    14    15 1   
    31    14    45 1   
    32    14    46 1   
    33    15    16 1   
    34    15    47 1   
    35    15    48 1   
    36    16    17 1   
    37    16    18 1   
    38    16    19 1   
    39    17    21 1   
    40    17    49 1   
    41    18    50 1   
    42    18    51 1   
    43    18    52 1   
    44    19    20 1   
    45    19    22 1   
    46    19    53 1   
    47    20    21 1   
    48    20    54 1   
    49    20    55 1   
    50    21    56 1   
    51    21    57 1   
    52    22    23 1   
    53    22    24 1   
    54    22    58 1   
    55    23    59 1   
    56    23    60 1   
    57    23    61 1   
    58    24    25 2   
    59    24    62 1   
    60    25    26 1   
    61    25    63 1   
    62    26    27 1   
    63    26    28 1   
    64    26    64 1   
    65    27    65 1   
    66    27    66 1   
    67    27    67 1   
    68    28    29 1   
    69    28    30 1   
    70    28    68 1   
    71    29    69 1   
    72    29    70 1   
    73    29    71 1   
    74    30    72 1   
    75    30    73 1   
    76    30    74 1   
@<TRIPOS>SUBSTRUCTURE
     1 V2H         1 TEMP              0 ****  ****    0 ROOT
