@<TRIPOS>MOLECULE
V2J
   49    52     1     0     0
SMALL
No Charge or Current Charge


@<TRIPOS>ATOM
      1 C4          37.3340   -20.6610   -21.1500 ca         1 V2J       0.161500
      2 C5          36.9490   -20.2290   -22.3960 ca         1 V2J      -0.107600
      3 C6          36.6480   -18.8600   -22.5600 ca         1 V2J       0.425900
      4 C8          37.3040   -22.3410   -22.6160 cc         1 V2J       0.413700
      5 N1          36.7380   -18.0000   -21.5340 nb         1 V2J      -0.318000
      6 C2          37.1250   -18.5290   -20.3470 ca         1 V2J       0.174900
      7 O2A         38.9080   -19.6660   -14.8860 o          1 V2J      -0.853000
      8 PA          39.6200   -20.6260   -15.7760 p5         1 V2J       1.400700
      9 O1A         40.0340   -21.8920   -15.1070 o          1 V2J      -0.853000
     10 N           40.9950   -19.8840   -16.3660 n3         1 V2J      -0.834700
     11 CA          41.7180   -20.7710   -17.3020 c5         1 V2J       0.252800
     12 CD          40.6960   -18.6600   -17.1330 c5         1 V2J       0.236800
     13 CG          42.0760   -18.4040   -17.7970 c5         1 V2J      -0.067400
     14 CB          42.4280   -19.8330   -18.3190 c5         1 V2J      -0.196700
     15 C           41.8130   -20.1710   -19.7040 c          1 V2J       0.725000
     16 OX          42.2970   -21.0950   -20.3400 o          1 V2J      -0.738500
     17 O           40.8180   -19.5940   -20.1060 o          1 V2J      -0.738500
     18 C9          37.6070   -21.6800   -17.1180 c3         1 V2J       0.237600
     19 C7          37.7650   -23.0350   -17.9010 c5         1 V2J       0.126300
     20 C3          39.2140   -23.5050   -18.2940 c5         1 V2J       0.104300
     21 O3          39.2690   -24.9360   -18.5120 oh         1 V2J      -0.719000
     22 C10         39.3940   -22.6670   -19.6120 c5         1 V2J       0.172300
     23 O2          40.5380   -23.0480   -20.4250 oh         1 V2J      -0.778000
     24 C1          38.0010   -22.9440   -20.2620 c5         1 V2J       0.300300
     25 O4          37.0480   -22.9540   -19.1670 os         1 V2J      -0.461000
     26 N9          37.5610   -22.0030   -21.2870 na         1 V2J      -0.254300
     27 N3          37.4260   -19.8240   -20.0960 nb         1 V2J      -0.121000
     28 N6          36.2610   -18.3290   -23.7510 nv         1 V2J      -1.091900
     29 N7          36.9240   -21.2670   -23.3360 nd         1 V2J      -0.602100
     30 H1          37.4120   -23.3540   -22.9870 h5         1 V2J       0.049800
     31 H2          37.2000   -17.8410   -19.5060 h5         1 V2J       0.048100
     32 H4          41.0640   -21.4700   -17.8300 h1         1 V2J       0.020700
     33 H5          42.4470   -21.3870   -16.7570 h1         1 V2J       0.020700
     34 H6          40.3930   -17.8260   -16.4840 h1         1 V2J       0.026700
     35 H7          39.9080   -18.8060   -17.8830 h1         1 V2J       0.026700
     36 H8          42.8110   -18.0590   -17.0600 hc         1 V2J       0.016200
     37 H9          42.0350   -17.6500   -18.5920 hc         1 V2J       0.016200
     38 H10         43.4920   -20.0980   -18.3120 hc         1 V2J       0.021700
     39 H12         36.7780   -21.1060   -17.5490 h1         1 V2J       0.015700
     40 H13         37.3240   -21.9190   -16.0840 h1         1 V2J       0.015700
     41 H14         37.2680   -23.8030   -17.2930 h1         1 V2J       0.017700
     42 H15         39.9430   -23.2170   -17.5250 h1         1 V2J       0.096700
     43 H16         39.1440   -25.3710   -17.6380 ho         1 V2J       0.473000
     44 H17         39.4450   -21.5970   -19.3730 h1         1 V2J       0.119700
     45 H18         41.1960   -22.2780   -20.4130 ho         1 V2J       0.598000
     46 H19         38.0080   -23.9360   -20.7310 h2         1 V2J       0.047700
     47 H20         36.3380   -17.3230   -23.8740 hn         1 V2J       0.484000
     48 H21         36.3890   -18.9080   -24.5780 hn         1 V2J       0.484000
     49 O5          38.8110   -20.9000   -17.1410 os         1 V2J      -0.594400
@<TRIPOS>BOND
     1     1     2 ar  
     2     1    26 1   
     3     1    27 ar  
     4     2     3 ar  
     5     2    29 1   
     6     3     5 ar  
     7     3    28 1   
     8     4    26 1   
     9     4    29 2   
    10     4    30 1   
    11     5     6 ar  
    12     6    27 ar  
    13     6    31 1   
    14     7     8 1   
    15     8     9 1   
    16     8    10 1   
    17     8    49 1   
    18    10    11 1   
    19    10    12 1   
    20    11    14 1   
    21    11    32 1   
    22    11    33 1   
    23    12    13 1   
    24    12    34 1   
    25    12    35 1   
    26    13    14 1   
    27    13    36 1   
    28    13    37 1   
    29    14    15 1   
    30    14    38 1   
    31    15    16 1   
    32    15    17 1   
    33    18    19 1   
    34    18    39 1   
    35    18    40 1   
    36    18    49 1   
    37    19    20 1   
    38    19    25 1   
    39    19    41 1   
    40    20    21 1   
    41    20    22 1   
    42    20    42 1   
    43    21    43 1   
    44    22    23 1   
    45    22    24 1   
    46    22    44 1   
    47    23    45 1   
    48    24    25 1   
    49    24    26 1   
    50    24    46 1   
    51    28    47 1   
    52    28    48 1   
@<TRIPOS>SUBSTRUCTURE
     1 V2J         1 TEMP              0 ****  ****    0 ROOT
