@<TRIPOS>MOLECULE
V2J
   49    52     1     0     0
SMALL
abcg2


@<TRIPOS>ATOM
      1 C4          37.3890   -20.5330   -21.1200 ca         1 V2J       0.161500
      2 C5          37.0480   -20.1250   -22.4030 ca         1 V2J      -0.107600
      3 C6          36.9350   -18.7390   -22.6160 ca         1 V2J       0.425900
      4 C8          37.1260   -22.2260   -22.4770 cc         1 V2J       0.413700
      5 N1          37.1570   -17.9250   -21.5800 nb         1 V2J      -0.318000
      6 C2          37.4690   -18.4550   -20.4000 ca         1 V2J       0.174900
      7 O2A         38.6600   -19.5080   -15.0600 o          1 V2J      -0.853000
      8 PA          39.5080   -20.5420   -15.7420 p5         1 V2J       1.400700
      9 O1A         40.0950   -21.6980   -14.9790 o          1 V2J      -0.853000
     10 N           40.7330   -19.7770   -16.5950 n3         1 V2J      -0.834700
     11 CA          41.8830   -20.5200   -17.1070 c5         1 V2J       0.252800
     12 CD          40.5020   -18.5670   -17.3710 c5         1 V2J       0.236800
     13 CG          41.8490   -18.3190   -18.0370 c5         1 V2J      -0.067400
     14 CB          42.3540   -19.7270   -18.3370 c5         1 V2J      -0.196700
     15 C           41.8230   -20.3330   -19.6500 c          1 V2J       0.725000
     16 OX          42.1230   -21.5490   -19.8260 o          1 V2J      -0.738500
     17 O           41.1760   -19.6250   -20.4320 o          1 V2J      -0.738500
     18 C9          37.7100   -22.2250   -16.7770 c3         1 V2J       0.237600
     19 C7          37.7310   -23.2350   -17.9100 c5         1 V2J       0.126300
     20 C3          39.1440   -23.5890   -18.4070 c5         1 V2J       0.104300
     21 O3          39.2550   -24.9370   -18.8020 oh         1 V2J      -0.719000
     22 C10         39.2460   -22.7200   -19.6640 c5         1 V2J       0.172300
     23 O2          40.1880   -23.0780   -20.6090 oh         1 V2J      -0.778000
     24 C1          37.8210   -22.8650   -20.1870 c5         1 V2J       0.300300
     25 O4          37.0090   -22.7550   -19.0560 os         1 V2J      -0.461000
     26 N9          37.4350   -21.9000   -21.1850 na         1 V2J      -0.254300
     27 N3          37.6020   -19.7290   -20.0810 nb         1 V2J      -0.121000
     28 N6          36.6050   -18.2190   -23.8010 nv         1 V2J      -1.091900
     29 N7          36.8890   -21.2010   -23.2370 nd         1 V2J      -0.602100
     30 H1          37.0950   -23.2590   -22.7940 h5         1 V2J       0.049800
     31 H2          37.6370   -17.7430   -19.5990 h5         1 V2J       0.048100
     32 H4          41.6390   -21.5500   -17.3720 h1         1 V2J       0.020700
     33 H5          42.6760   -20.5700   -16.3520 h1         1 V2J       0.020700
     34 H6          40.1930   -17.7370   -16.7330 h1         1 V2J       0.026700
     35 H7          39.7250   -18.7000   -18.1340 h1         1 V2J       0.026700
     36 H8          42.5220   -17.8240   -17.3320 hc         1 V2J       0.016200
     37 H9          41.7710   -17.6890   -18.9210 hc         1 V2J       0.016200
     38 H10         43.4470   -19.7540   -18.3950 hc         1 V2J       0.021700
     39 H12         36.6870   -21.8490   -16.6500 h1         1 V2J       0.015700
     40 H13         37.9620   -22.7730   -15.8640 h1         1 V2J       0.015700
     41 H14         37.2220   -24.1350   -17.5420 h1         1 V2J       0.017700
     42 H15         39.9050   -23.3330   -17.6600 h1         1 V2J       0.096700
     43 H16         39.1340   -25.4900   -18.0230 ho         1 V2J       0.473000
     44 H17         39.3750   -21.6860   -19.3250 h1         1 V2J       0.119700
     45 H18         40.9860   -22.5080   -20.4290 ho         1 V2J       0.598000
     46 H19         37.7060   -23.8410   -20.6770 h2         1 V2J       0.047700
     47 H20         36.6250   -17.2230   -23.9350 hn         1 V2J       0.484000
     48 H21         36.5330   -18.8030   -24.6160 hn         1 V2J       0.484000
     49 O5          38.6090   -21.1690   -17.0050 os         1 V2J      -0.594400
@<TRIPOS>BOND
     1     1     2 ar  
     2     1    26 1   
     3     1    27 ar  
     4     2     3 ar  
     5     2    29 1   
     6     3     5 ar  
     7     3    28 1   
     8     4    26 1   
     9     4    29 2   
    10     4    30 1   
    11     5     6 ar  
    12     6    27 ar  
    13     6    31 1   
    14     7     8 1   
    15     8     9 1   
    16     8    10 1   
    17     8    49 1   
    18    10    11 1   
    19    10    12 1   
    20    11    14 1   
    21    11    32 1   
    22    11    33 1   
    23    12    13 1   
    24    12    34 1   
    25    12    35 1   
    26    13    14 1   
    27    13    36 1   
    28    13    37 1   
    29    14    15 1   
    30    14    38 1   
    31    15    16 1   
    32    15    17 1   
    33    18    19 1   
    34    18    39 1   
    35    18    40 1   
    36    18    49 1   
    37    19    20 1   
    38    19    25 1   
    39    19    41 1   
    40    20    21 1   
    41    20    22 1   
    42    20    42 1   
    43    21    43 1   
    44    22    23 1   
    45    22    24 1   
    46    22    44 1   
    47    23    45 1   
    48    24    25 1   
    49    24    26 1   
    50    24    46 1   
    51    28    47 1   
    52    28    48 1   
@<TRIPOS>SUBSTRUCTURE
     1 V2J         1 TEMP              0 ****  ****    0 ROOT
