@<TRIPOS>MOLECULE
V2K
   34    36     1     0     0
SMALL
bcc


@<TRIPOS>ATOM
      1 C10        -16.1210   -23.9300    -2.0070 ca         1 V2K      -0.192000
      2 C11        -15.0320   -23.5680    -2.8180 ca         1 V2K       0.120100
      3 C13        -15.3300   -25.4710    -4.2140 c3         1 V2K       0.127700
      4 C14        -14.3000   -22.4160    -2.5540 ca         1 V2K      -0.112000
      5 C15        -14.6730   -21.6370    -1.4640 ca         1 V2K       0.110400
      6 C17        -14.8440   -20.1260     0.0400 cc         1 V2K       0.445800
      7 C18        -14.6050   -18.9250     0.8790 c3         1 V2K      -0.115400
      8 C03        -18.6170   -20.9650     3.4320 ca         1 V2K      -0.202600
      9 C04        -18.5340   -19.8880     2.5550 ca         1 V2K      -0.068000
     10 C05        -17.6260   -19.9010     1.5100 ca         1 V2K      -0.146000
     11 C06        -16.7810   -20.9930     1.3560 ca         1 V2K       0.038800
     12 C08        -15.7540   -22.0170    -0.6590 ca         1 V2K      -0.103200
     13 C09        -16.4960   -23.1540    -0.9190 ca         1 V2K      -0.093000
     14 C19        -16.8550   -22.0760     2.2310 ca         1 V2K      -0.146000
     15 C20        -17.7740   -22.0630     3.2610 ca         1 V2K      -0.068000
     16 N07        -15.8500   -21.0250     0.2990 na         1 V2K      -0.104400
     17 N16        -14.1300   -20.4630    -0.9970 nd         1 V2K      -0.577100
     18 O12        -14.6280   -24.2920    -3.8860 os         1 V2K      -0.318900
     19 H1         -16.6950   -24.8220    -2.2160 ha         1 V2K       0.136000
     20 H2         -14.8430   -25.8870    -5.0930 h1         1 V2K       0.038700
     21 H3         -15.2920   -26.2120    -3.4100 h1         1 V2K       0.038700
     22 H4         -16.3780   -25.2730    -4.4570 h1         1 V2K       0.038700
     23 H5         -13.4660   -22.1330    -3.1840 ha         1 V2K       0.162000
     24 H6         -13.6180   -18.5270     0.6570 hc         1 V2K       0.061367
     25 H7         -15.3370   -18.1420     0.6770 hc         1 V2K       0.061367
     26 H8         -14.6570   -19.1600     1.9420 hc         1 V2K       0.061367
     27 H9         -20.2140   -20.0030     4.5550 h4         1 V2K      -0.008800
     28 H12        -19.1930   -19.0370     2.6800 ha         1 V2K       0.148000
     29 H13        -17.5860   -19.0750     0.8120 ha         1 V2K       0.152000
     30 H14        -17.3410   -23.4480    -0.3100 ha         1 V2K       0.140000
     31 H15        -16.1860   -22.9170     2.1070 ha         1 V2K       0.152000
     32 H16        -17.8280   -22.9030     3.9410 ha         1 V2K       0.148000
     33 O1         -19.7520   -21.7980     5.3430 o          1 V2K      -0.509100
     34 C02        -19.6020   -20.9220     4.5270 c          1 V2K       0.584500
@<TRIPOS>BOND
     1     1     2 ar  
     2     1    13 ar  
     3     1    19 1   
     4     2     4 ar  
     5     2    18 1   
     6     3    18 1   
     7     3    20 1   
     8     3    21 1   
     9     3    22 1   
    10     4     5 ar  
    11     4    23 1   
    12     5    12 ar  
    13     5    17 1   
    14     6     7 1   
    15     6    16 1   
    16     6    17 2   
    17     7    24 1   
    18     7    25 1   
    19     7    26 1   
    20     8     9 ar  
    21     8    15 ar  
    22     8    34 1   
    23     9    10 ar  
    24     9    28 1   
    25    10    11 ar  
    26    10    29 1   
    27    11    14 ar  
    28    11    16 1   
    29    12    13 ar  
    30    12    16 1   
    31    13    30 1   
    32    14    15 ar  
    33    14    31 1   
    34    15    32 1   
    35    27    34 1   
    36    33    34 2   
@<TRIPOS>SUBSTRUCTURE
     1 V2K         1 TEMP              0 ****  ****    0 ROOT
