@<TRIPOS>MOLECULE
V2K
   34    36     1     0     0
SMALL
No Charge or Current Charge


@<TRIPOS>ATOM
      1 C10        -16.0950   -23.9780    -1.9760 ca         1 V2K      -0.174000
      2 C11        -15.0910   -23.5250    -2.8780 ca         1 V2K       0.120100
      3 C13        -15.4370   -25.4320    -4.4090 c3         1 V2K       0.150900
      4 C14        -14.3800   -22.3370    -2.6060 ca         1 V2K      -0.094000
      5 C15        -14.6820   -21.6220    -1.4410 ca         1 V2K       0.110400
      6 C17        -14.7580   -20.1620     0.1580 cc         1 V2K       0.445800
      7 C18        -14.5140   -18.9530     1.0170 c3         1 V2K      -0.115400
      8 C03        -18.6740   -20.9150     3.3950 ca         1 V2K      -0.202600
      9 C04        -18.6520   -19.9940     2.3270 ca         1 V2K      -0.050000
     10 C05        -17.6570   -20.0790     1.3380 ca         1 V2K      -0.128000
     11 C06        -16.6720   -21.0810     1.4070 ca         1 V2K       0.038800
     12 C08        -15.6470   -22.0740    -0.5850 ca         1 V2K      -0.103200
     13 C09        -16.3830   -23.2440    -0.8060 ca         1 V2K      -0.075000
     14 C19        -16.6940   -22.0040     2.4670 ca         1 V2K      -0.128000
     15 C20        -17.6880   -21.9230     3.4580 ca         1 V2K      -0.050000
     16 N07        -15.6850   -21.1720     0.4300 na         1 V2K      -0.104400
     17 N16        -14.1060   -20.4280    -0.9950 nd         1 V2K      -0.577100
     18 O12        -14.7750   -24.2110    -4.0340 os         1 V2K      -0.342100
     19 H1         -16.6540   -24.8890    -2.1660 ha         1 V2K       0.118000
     20 H2         -15.0340   -25.8070    -5.3580 h1         1 V2K       0.038700
     21 H3         -15.2870   -26.2070    -3.6460 h1         1 V2K       0.038700
     22 H4         -16.5140   -25.2680    -4.5390 h1         1 V2K       0.038700
     23 H5         -13.6140   -21.9810    -3.2890 ha         1 V2K       0.144000
     24 H6         -13.5320   -18.5160     0.8060 hc         1 V2K       0.061367
     25 H7         -15.2750   -18.1880     0.8310 hc         1 V2K       0.061367
     26 H8         -14.5450   -19.2180     2.0800 hc         1 V2K       0.061367
     27 H9         -20.4810   -19.9880     4.3140 h4         1 V2K      -0.008800
     28 H12        -19.4070   -19.2120     2.2600 ha         1 V2K       0.130000
     29 H13        -17.6560   -19.3670     0.5160 ha         1 V2K       0.134000
     30 H14        -17.1460   -23.5750    -0.1050 ha         1 V2K       0.122000
     31 H15        -15.9390   -22.7840     2.5240 ha         1 V2K       0.134000
     32 H16        -17.6880   -22.6450     4.2730 ha         1 V2K       0.130000
     33 O1         -19.8290   -21.5780     5.4030 o          1 V2K      -0.509100
     34 C02        -19.7460   -20.8130     4.4470 c          1 V2K       0.584500
@<TRIPOS>BOND
     1     1     2 ar  
     2     1    13 ar  
     3     1    19 1   
     4     2     4 ar  
     5     2    18 1   
     6     3    18 1   
     7     3    20 1   
     8     3    21 1   
     9     3    22 1   
    10     4     5 ar  
    11     4    23 1   
    12     5    12 ar  
    13     5    17 1   
    14     6     7 1   
    15     6    16 1   
    16     6    17 2   
    17     7    24 1   
    18     7    25 1   
    19     7    26 1   
    20     8     9 ar  
    21     8    15 ar  
    22     8    34 1   
    23     9    10 ar  
    24     9    28 1   
    25    10    11 ar  
    26    10    29 1   
    27    11    14 ar  
    28    11    16 1   
    29    12    13 ar  
    30    12    16 1   
    31    13    30 1   
    32    14    15 ar  
    33    14    31 1   
    34    15    32 1   
    35    27    34 1   
    36    33    34 2   
@<TRIPOS>SUBSTRUCTURE
     1 V2K         1 TEMP              0 ****  ****    0 ROOT
