@<TRIPOS>MOLECULE
V2L
   27    28     1     0     0
SMALL
abcg2


@<TRIPOS>ATOM
      1 N1          30.2860    15.9390    42.9700 nc         1 V2L      -0.682000
      2 C7          29.2760    17.7420    42.0870 cd         1 V2L      -0.229000
      3 C8          30.3510    17.3070    42.8100 cc         1 V2L       0.229900
      4 N2          27.4520    13.9730    43.0550 n8         1 V2L      -1.012200
      5 C9          29.1850    15.5500    42.3480 cd         1 V2L       0.404800
      6 C1          28.9400    15.7150    37.6330 ca         1 V2L      -0.110000
      7 C5          26.7500    14.7210    37.7170 ca         1 V2L      -0.110000
      8 C4          26.5700    15.2360    38.9970 ca         1 V2L      -0.097500
      9 C3          27.5680    15.9980    39.6020 ca         1 V2L      -0.114300
     10 C2          28.7560    16.2310    38.9100 ca         1 V2L      -0.097500
     11 C10         28.6840    14.1470    42.2670 c3         1 V2L       0.121500
     12 N           28.5360    16.6180    41.8000 na         1 V2L      -0.157500
     13 C           27.9360    14.9600    37.0310 ca         1 V2L      -0.105000
     14 H1          28.9690    18.7190    41.7520 h4         1 V2L       0.154000
     15 H2          31.1570    17.8910    43.2240 h4         1 V2L       0.037100
     16 H3          27.0870    13.0380    42.9060 hn         1 V2L       0.402500
     17 H4          27.6700    14.0440    44.0440 hn         1 V2L       0.402500
     18 H7          25.9680    14.1270    37.2610 ha         1 V2L       0.115500
     19 H10         25.6510    15.0370    39.5360 ha         1 V2L       0.118500
     20 H11         29.5440    16.8120    39.3730 ha         1 V2L       0.118500
     21 H12         28.4510    13.8990    41.2290 h1         1 V2L       0.054700
     22 H13         29.5040    13.4950    42.5830 h1         1 V2L       0.054700
     23 H14         28.0810    14.5560    36.0370 ha         1 V2L       0.114000
     24 C6          27.3320    16.5730    40.9810 c3         1 V2L       0.119900
     25 H6          29.8680    15.9000    37.1070 ha         1 V2L       0.115500
     26 H8          26.9610    17.5960    40.9050 h1         1 V2L       0.075700
     27 H9          26.5800    15.9850    41.5030 h1         1 V2L       0.075700
@<TRIPOS>BOND
     1     1     3 1   
     2     1     5 2   
     3     2     3 2   
     4     2    12 1   
     5     2    14 1   
     6     3    15 1   
     7     4    11 1   
     8     4    16 1   
     9     4    17 1   
    10     5    11 1   
    11     5    12 1   
    12     6    10 ar  
    13     6    13 ar  
    14     6    25 1   
    15     7     8 ar  
    16     7    13 ar  
    17     7    18 1   
    18     8     9 ar  
    19     8    19 1   
    20     9    10 ar  
    21     9    24 1   
    22    10    20 1   
    23    11    21 1   
    24    11    22 1   
    25    12    24 1   
    26    13    23 1   
    27    24    26 1   
    28    24    27 1   
@<TRIPOS>SUBSTRUCTURE
     1 V2L         1 TEMP              0 ****  ****    0 ROOT
