@<TRIPOS>MOLECULE
V2L
   27    28     1     0     0
SMALL
No Charge or Current Charge


@<TRIPOS>ATOM
      1 N1          30.1270    15.9050    43.1010 nc         1 V2L      -0.682000
      2 C7          29.3110    17.7710    42.1180 cd         1 V2L      -0.229000
      3 C8          30.2770    17.2530    42.9380 cc         1 V2L       0.229900
      4 N2          27.5740    13.7550    43.3700 n8         1 V2L      -1.012200
      5 C9          29.0640    15.5720    42.3750 cd         1 V2L       0.404800
      6 C1          28.9550    15.7350    37.5270 ca         1 V2L      -0.110000
      7 C5          26.7770    14.6660    37.6870 ca         1 V2L      -0.110000
      8 C4          26.5780    15.2590    38.9460 ca         1 V2L      -0.097500
      9 C3          27.5680    16.0910    39.5070 ca         1 V2L      -0.114300
     10 C2          28.7570    16.3280    38.7860 ca         1 V2L      -0.097500
     11 C10         28.5250    14.1410    42.2760 c3         1 V2L       0.121500
     12 N           28.5230    16.6910    41.7540 na         1 V2L      -0.157500
     13 C           27.9660    14.9030    36.9770 ca         1 V2L      -0.105000
     14 H1          29.1370    18.7870    41.7840 h4         1 V2L       0.154000
     15 H2          31.0860    17.7770    43.4320 h4         1 V2L       0.037100
     16 H3          27.3430    12.7570    43.2840 hn         1 V2L       0.402500
     17 H4          28.0660    13.8120    44.2720 hn         1 V2L       0.402500
     18 H7          26.0090    14.0230    37.2610 ha         1 V2L       0.115500
     19 H10         25.6520    15.0680    39.4860 ha         1 V2L       0.118500
     20 H11         29.5300    16.9740    39.1970 ha         1 V2L       0.118500
     21 H12         28.0210    14.0110    41.3090 h1         1 V2L       0.054700
     22 H13         29.3780    13.4490    42.2940 h1         1 V2L       0.054700
     23 H14         28.1200    14.4440    36.0030 ha         1 V2L       0.114000
     24 C6          27.3410    16.7270    40.8770 c3         1 V2L       0.119900
     25 H6          29.8750    15.9210    36.9770 ha         1 V2L       0.115500
     26 H8          27.0390    17.7730    40.7370 h1         1 V2L       0.075700
     27 H9          26.5160    16.2160    41.3910 h1         1 V2L       0.075700
@<TRIPOS>BOND
     1     1     3 1   
     2     1     5 2   
     3     2     3 2   
     4     2    12 1   
     5     2    14 1   
     6     3    15 1   
     7     4    11 1   
     8     4    16 1   
     9     4    17 1   
    10     5    11 1   
    11     5    12 1   
    12     6    10 ar  
    13     6    13 ar  
    14     6    25 1   
    15     7     8 ar  
    16     7    13 ar  
    17     7    18 1   
    18     8     9 ar  
    19     8    19 1   
    20     9    10 ar  
    21     9    24 1   
    22    10    20 1   
    23    11    21 1   
    24    11    22 1   
    25    12    24 1   
    26    13    23 1   
    27    24    26 1   
    28    24    27 1   
@<TRIPOS>SUBSTRUCTURE
     1 V2L         1 TEMP              0 ****  ****    0 ROOT
