@<TRIPOS>MOLECULE
V2M
   66    68     1     0     0
SMALL
No Charge or Current Charge


@<TRIPOS>ATOM
      1 C1          25.4770    57.7900    27.9180 c3         1 V2M       0.146900
      2 O2          25.3660    56.5760    28.6790 os         1 V2M      -0.335100
      3 C3          25.1040    56.5870    30.0340 ca         1 V2M       0.201100
      4 C4          24.9250    57.7760    30.7840 ca         1 V2M      -0.244000
      5 C5          24.6590    57.7120    32.1740 ca         1 V2M      -0.039000
      6 C6          24.5690    56.4640    32.8290 ca         1 V2M      -0.170000
      7 C7          24.7500    55.3070    32.0630 ca         1 V2M      -0.001200
      8 N8          24.7110    53.9800    32.4600 na         1 V2M      -0.184700
      9 C9          24.9480    53.1270    31.3570 cc         1 V2M      -0.162300
     10 C10         25.1300    54.0030    30.2840 cd         1 V2M      -0.158200
     11 C11         25.0060    55.3710    30.7240 ca         1 V2M      -0.145800
     12 C12         24.9960    51.6410    31.3200 c          1 V2M       0.637300
     13 O13         24.8230    50.9460    32.3110 o          1 V2M      -0.632100
     14 N14         25.2580    51.1080    30.0780 ns         1 V2M      -0.470900
     15 C15         25.3520    49.6640    29.7610 c3         1 V2M       0.036700
     16 C17         24.0390    49.1540    29.0990 c3         1 V2M      -0.085400
     17 C18         22.7720    49.1640    30.0000 c3         1 V2M      -0.058700
     18 C19         22.8810    48.1800    31.1900 c3         1 V2M      -0.091600
     19 C20         21.5030    48.8690    29.1690 c3         1 V2M      -0.091600
     20 C21         26.5760    49.4090    28.8370 c          1 V2M       0.584100
     21 O22         27.1530    50.3010    28.2290 o          1 V2M      -0.596100
     22 N23         26.9710    48.0880    28.7420 ns         1 V2M      -0.499900
     23 C24         28.1490    47.6040    27.9840 c3         1 V2M       0.000700
     24 C26         29.2410    47.0670    28.9500 c3         1 V2M      -0.065400
     25 C27         29.8070    48.1160    29.9490 c5         1 V2M      -0.160700
     26 C29         30.5380    49.3240    29.3000 c5         1 V2M      -0.089400
     27 C30         31.3920    49.8410    30.4890 c5         1 V2M       0.102000
     28 N31         31.7480    48.5780    31.1310 ns         1 V2M      -0.513900
     29 C32         30.8710    47.5540    30.9010 c          1 V2M       0.564000
     30 O33         31.0900    46.3990    31.2310 o          1 V2M      -0.558000
     31 C34         27.6920    46.5580    26.9310 c          1 V2M       0.518100
     32 O35         27.8910    45.3530    27.0630 o          1 V2M      -0.497100
     33 C36         26.9650    47.1330    25.6840 c3         1 V2M       0.063600
     34 O37         26.2390    46.1310    24.9260 oh         1 V2M      -0.636000
     35 H1          25.6870    57.5610    26.8650 h1         1 V2M       0.042700
     36 H2          24.5430    58.3650    27.9610 h1         1 V2M       0.042700
     37 H3          26.2940    58.4160    28.2990 h1         1 V2M       0.042700
     38 H4          24.9890    58.7520    30.3110 ha         1 V2M       0.117000
     39 H5          24.5230    58.6300    32.7420 ha         1 V2M       0.111000
     40 H6          24.3650    56.4070    33.8950 ha         1 V2M       0.120000
     41 H7          24.5360    53.6660    33.4100 hn         1 V2M       0.368000
     42 H8          25.3340    53.7160    29.2560 ha         1 V2M       0.209000
     43 H9          25.4380    51.7670    29.3330 hn         1 V2M       0.331500
     44 H10         25.5420    49.1020    30.6830 h1         1 V2M       0.079700
     45 H11         24.1930    48.1290    28.7370 hc         1 V2M       0.056200
     46 H12         23.8490    49.7630    28.2060 hc         1 V2M       0.056200
     47 H13         22.6520    50.1730    30.4120 hc         1 V2M       0.049700
     48 H14         23.7200    48.4350    31.8450 hc         1 V2M       0.037200
     49 H15         21.9680    48.2090    31.7980 hc         1 V2M       0.037200
     50 H16         23.0210    47.1520    30.8350 hc         1 V2M       0.037200
     51 H17         20.6060    48.9200    29.7980 hc         1 V2M       0.037200
     52 H18         21.3880    49.6010    28.3600 hc         1 V2M       0.037200
     53 H19         21.5510    47.8680    28.7210 hc         1 V2M       0.037200
     54 H20         26.4370    47.4160    29.2830 hn         1 V2M       0.320500
     55 H21         28.5790    48.4370    27.4110 h1         1 V2M       0.099700
     56 H22         28.8260    46.2200    29.5110 hc         1 V2M       0.072200
     57 H23         30.0660    46.6580    28.3530 hc         1 V2M       0.072200
     58 H24         28.9970    48.5030    30.5790 hc         1 V2M       0.090700
     59 H25         29.8560    50.0880    28.9100 hc         1 V2M       0.062700
     60 H26         31.1820    49.0030    28.4720 hc         1 V2M       0.062700
     61 H27         32.2680    50.4110    30.1500 h1         1 V2M       0.044200
     62 H28         30.8020    50.4780    31.1620 h1         1 V2M       0.044200
     63 H29         32.5850    48.3970    31.6730 hn         1 V2M       0.326500
     64 H32         27.7280    47.6180    25.0600 h1         1 V2M       0.066700
     65 H33         26.2820    47.9200    26.0300 h1         1 V2M       0.066700
     66 H34         26.7900    45.3130    24.9190 ho         1 V2M       0.454000
@<TRIPOS>BOND
     1     1     2 1   
     2     1    35 1   
     3     1    36 1   
     4     1    37 1   
     5     2     3 1   
     6     3     4 ar  
     7     3    11 ar  
     8     4     5 ar  
     9     4    38 1   
    10     5     6 ar  
    11     5    39 1   
    12     6     7 ar  
    13     6    40 1   
    14     7     8 1   
    15     7    11 ar  
    16     8     9 1   
    17     8    41 1   
    18     9    10 2   
    19     9    12 1   
    20    10    11 1   
    21    10    42 1   
    22    12    13 2   
    23    12    14 1   
    24    14    15 1   
    25    14    43 1   
    26    15    16 1   
    27    15    20 1   
    28    15    44 1   
    29    16    17 1   
    30    16    45 1   
    31    16    46 1   
    32    17    18 1   
    33    17    19 1   
    34    17    47 1   
    35    18    48 1   
    36    18    49 1   
    37    18    50 1   
    38    19    51 1   
    39    19    52 1   
    40    19    53 1   
    41    20    21 2   
    42    20    22 1   
    43    22    23 1   
    44    22    54 1   
    45    23    24 1   
    46    23    31 1   
    47    23    55 1   
    48    24    25 1   
    49    24    56 1   
    50    24    57 1   
    51    25    26 1   
    52    25    29 1   
    53    25    58 1   
    54    26    27 1   
    55    26    59 1   
    56    26    60 1   
    57    27    28 1   
    58    27    61 1   
    59    27    62 1   
    60    28    29 1   
    61    28    63 1   
    62    29    30 2   
    63    31    32 2   
    64    31    33 1   
    65    33    34 1   
    66    33    64 1   
    67    33    65 1   
    68    34    66 1   
@<TRIPOS>SUBSTRUCTURE
     1 V2M         1 TEMP              0 ****  ****    0 ROOT
