@<TRIPOS>MOLECULE
V2M
   66    68     1     0     0
SMALL
bcc


@<TRIPOS>ATOM
      1 C1          23.3400    57.9310    29.5720 c3         1 V2M       0.123700
      2 O2          23.8530    56.6240    29.7420 os         1 V2M      -0.311900
      3 C3          24.9430    56.4640    30.5090 ca         1 V2M       0.201100
      4 C4          25.6240    57.4740    31.1620 ca         1 V2M      -0.262000
      5 C5          26.7600    57.1810    31.9450 ca         1 V2M      -0.057000
      6 C6          27.2450    55.9040    32.1000 ca         1 V2M      -0.188000
      7 C7          26.5490    54.8870    31.4370 ca         1 V2M      -0.001200
      8 N8          26.7750    53.5500    31.3970 na         1 V2M      -0.134400
      9 C9          25.8330    52.9450    30.6090 cc         1 V2M      -0.162300
     10 C10         24.9700    53.8940    30.1260 cd         1 V2M      -0.108200
     11 C11         25.4110    55.1420    30.6440 ca         1 V2M      -0.145800
     12 C12         25.8990    51.4870    30.4300 c          1 V2M       0.704300
     13 O13         26.6990    50.8150    31.0700 o          1 V2M      -0.632100
     14 N14         25.0390    50.9460    29.5470 ns         1 V2M      -0.537900
     15 C15         25.1180    49.5480    29.2120 c3         1 V2M       0.036700
     16 C17         23.9780    49.1580    28.2720 c3         1 V2M      -0.085400
     17 C18         22.5730    49.3130    28.8590 c3         1 V2M      -0.058700
     18 C19         22.3860    48.4840    30.1250 c3         1 V2M      -0.091600
     19 C20         21.5420    48.9260    27.8020 c3         1 V2M      -0.091600
     20 C21         26.4570    49.2470    28.5350 c          1 V2M       0.651100
     21 O22         26.9770    50.0360    27.7670 o          1 V2M      -0.596100
     22 N23         26.9620    48.0320    28.8220 ns         1 V2M      -0.566900
     23 C24         28.2650    47.5740    28.3960 c3         1 V2M       0.000700
     24 C26         29.1720    47.2740    29.5890 c3         1 V2M      -0.065400
     25 C27         29.2930    48.4590    30.5320 c5         1 V2M      -0.160700
     26 C29         29.8980    49.7300    29.9410 c5         1 V2M      -0.089400
     27 C30         30.5330    50.4200    31.1490 c5         1 V2M       0.102000
     28 N31         30.8650    49.2970    32.0030 ns         1 V2M      -0.580900
     29 C32         30.1890    48.1710    31.7270 c          1 V2M       0.706500
     30 O33         30.2670    47.1150    32.3350 o          1 V2M      -0.633500
     31 C34         28.1510    46.3960    27.4370 c          1 V2M       0.518100
     32 O35         28.9830    45.5230    27.4000 o          1 V2M      -0.497100
     33 C36         26.9820    46.4210    26.4730 c3         1 V2M       0.040400
     34 O37         26.9850    45.3600    25.5710 oh         1 V2M      -0.573800
     35 H1          22.4640    57.8400    28.9350 h1         1 V2M       0.042700
     36 H2          23.0400    58.3780    30.5230 h1         1 V2M       0.042700
     37 H3          24.0630    58.5920    29.0870 h1         1 V2M       0.042700
     38 H4          25.3040    58.5040    31.0880 ha         1 V2M       0.135000
     39 H5          27.2630    58.0020    32.4390 ha         1 V2M       0.129000
     40 H6          28.1180    55.6970    32.7040 ha         1 V2M       0.138000
     41 H7          27.5200    53.0600    31.8650 hn         1 V2M       0.317700
     42 H8          24.1160    53.7280    29.4880 ha         1 V2M       0.159000
     43 H9          24.5200    51.5520    28.9310 hn         1 V2M       0.331500
     44 H10         25.0500    48.9590    30.1300 h1         1 V2M       0.079700
     45 H11         24.1220    48.1120    27.9810 hc         1 V2M       0.056200
     46 H12         24.0590    49.7490    27.3540 hc         1 V2M       0.056200
     47 H13         22.4100    50.3660    29.1130 hc         1 V2M       0.049700
     48 H14         23.0180    48.8280    30.9440 hc         1 V2M       0.037200
     49 H15         21.3540    48.5400    30.4740 hc         1 V2M       0.037200
     50 H16         22.6200    47.4320    29.9430 hc         1 V2M       0.037200
     51 H17         20.5270    49.0570    28.1800 hc         1 V2M       0.037200
     52 H18         21.6420    49.5360    26.9030 hc         1 V2M       0.037200
     53 H19         21.6550    47.8800    27.5100 hc         1 V2M       0.037200
     54 H20         26.4890    47.4700    29.5140 hn         1 V2M       0.320500
     55 H21         28.7060    48.3830    27.8020 h1         1 V2M       0.099700
     56 H22         28.7850    46.4100    30.1330 hc         1 V2M       0.072200
     57 H23         30.1600    46.9990    29.2160 hc         1 V2M       0.072200
     58 H24         28.3080    48.7020    30.9480 hc         1 V2M       0.090700
     59 H25         29.1680    50.3650    29.4460 hc         1 V2M       0.062700
     60 H26         30.6740    49.4740    29.2140 hc         1 V2M       0.062700
     61 H27         31.4240    50.9910    30.8900 h1         1 V2M       0.044200
     62 H28         29.8280    51.0960    31.6420 h1         1 V2M       0.044200
     63 H29         31.4340    49.3910    32.8300 hn         1 V2M       0.326500
     64 H32         26.9750    47.4070    25.9820 h1         1 V2M       0.066700
     65 H33         26.0530    46.3660    27.0470 h1         1 V2M       0.066700
     66 H34         27.8060    45.3760    25.0690 ho         1 V2M       0.415000
@<TRIPOS>BOND
     1     1     2 1   
     2     1    35 1   
     3     1    36 1   
     4     1    37 1   
     5     2     3 1   
     6     3     4 ar  
     7     3    11 ar  
     8     4     5 ar  
     9     4    38 1   
    10     5     6 ar  
    11     5    39 1   
    12     6     7 ar  
    13     6    40 1   
    14     7     8 1   
    15     7    11 ar  
    16     8     9 1   
    17     8    41 1   
    18     9    10 2   
    19     9    12 1   
    20    10    11 1   
    21    10    42 1   
    22    12    13 2   
    23    12    14 1   
    24    14    15 1   
    25    14    43 1   
    26    15    16 1   
    27    15    20 1   
    28    15    44 1   
    29    16    17 1   
    30    16    45 1   
    31    16    46 1   
    32    17    18 1   
    33    17    19 1   
    34    17    47 1   
    35    18    48 1   
    36    18    49 1   
    37    18    50 1   
    38    19    51 1   
    39    19    52 1   
    40    19    53 1   
    41    20    21 2   
    42    20    22 1   
    43    22    23 1   
    44    22    54 1   
    45    23    24 1   
    46    23    31 1   
    47    23    55 1   
    48    24    25 1   
    49    24    56 1   
    50    24    57 1   
    51    25    26 1   
    52    25    29 1   
    53    25    58 1   
    54    26    27 1   
    55    26    59 1   
    56    26    60 1   
    57    27    28 1   
    58    27    61 1   
    59    27    62 1   
    60    28    29 1   
    61    28    63 1   
    62    29    30 2   
    63    31    32 2   
    64    31    33 1   
    65    33    34 1   
    66    33    64 1   
    67    33    65 1   
    68    34    66 1   
@<TRIPOS>SUBSTRUCTURE
     1 V2M         1 TEMP              0 ****  ****    0 ROOT
