@<TRIPOS>MOLECULE
V2N
   34    36     1     0     0
SMALL
No Charge or Current Charge


@<TRIPOS>ATOM
      1 C10        -13.5330   -19.1770    -0.0610 ca         1 V2N       0.159100
      2 C12        -13.2270   -17.7050     1.8930 c3         1 V2N       0.147900
      3 C13        -13.0840   -19.5610    -1.3470 ca         1 V2N      -0.161000
      4 C14        -13.7370   -20.5870    -2.0680 ca         1 V2N      -0.015000
      5 C15        -14.8410   -21.2170    -1.4760 ca         1 V2N       0.038400
      6 C17        -16.5580   -22.4670    -1.0490 cc         1 V2N       0.426800
      7 C18        -17.6680   -23.4750    -1.1560 c3         1 V2N      -0.111400
      8 C03        -19.0400   -21.0970     3.2330 ca         1 V2N      -0.201600
      9 C04        -19.4140   -20.7540     1.9180 ca         1 V2N      -0.051500
     10 C05        -18.5110   -20.9320     0.8560 ca         1 V2N      -0.127500
     11 C06        -17.2280   -21.4580     1.0950 ca         1 V2N       0.038800
     12 C08        -15.2640   -20.8380    -0.2310 ca         1 V2N      -0.032200
     13 C09        -14.6500   -19.8270     0.5180 ca         1 V2N      -0.213000
     14 C19        -16.8510   -21.7960     2.4060 ca         1 V2N      -0.127500
     15 C20        -17.7510   -21.6190     3.4720 ca         1 V2N      -0.051500
     16 N07        -16.3280   -21.6340     0.0480 na         1 V2N      -0.107400
     17 N16        -15.6330   -22.2400    -2.0080 nd         1 V2N      -0.560100
     18 O11        -12.8500   -18.1680     0.5840 os         1 V2N      -0.339100
     19 H1         -12.5560   -16.9020     2.2210 h1         1 V2N       0.041033
     20 H2         -14.2520   -17.3120     1.8870 h1         1 V2N       0.041033
     21 H3         -13.1670   -18.5190     2.6270 h1         1 V2N       0.041033
     22 H4         -12.2260   -19.0590    -1.7860 ha         1 V2N       0.130000
     23 H5         -13.3940   -20.8810    -3.0570 ha         1 V2N       0.132000
     24 H6         -17.4370   -24.2340    -1.9130 hc         1 V2N       0.059700
     25 H7         -17.8220   -23.9890    -0.2000 hc         1 V2N       0.059700
     26 H8         -18.6070   -22.9870    -1.4390 hc         1 V2N       0.059700
     27 H9         -21.0090   -20.4830     4.0810 h4         1 V2N      -0.007800
     28 H12        -20.4030   -20.3460     1.7160 ha         1 V2N       0.130000
     29 H13        -18.8090   -20.6550    -0.1540 ha         1 V2N       0.134000
     30 H14        -15.0300   -19.5670     1.5010 ha         1 V2N       0.127000
     31 H15        -15.8590   -22.1980     2.6000 ha         1 V2N       0.134000
     32 H16        -17.4420   -21.8880     4.4810 ha         1 V2N       0.130000
     33 O1         -19.7630   -21.1750     5.5310 o          1 V2N      -0.510100
     34 C02        -20.0170   -20.9000     4.3630 c          1 V2N       0.584500
@<TRIPOS>BOND
     1     1     3 ar  
     2     1    13 ar  
     3     1    18 1   
     4     2    18 1   
     5     2    19 1   
     6     2    20 1   
     7     2    21 1   
     8     3     4 ar  
     9     3    22 1   
    10     4     5 ar  
    11     4    23 1   
    12     5    12 ar  
    13     5    17 1   
    14     6     7 1   
    15     6    16 1   
    16     6    17 2   
    17     7    24 1   
    18     7    25 1   
    19     7    26 1   
    20     8     9 ar  
    21     8    15 ar  
    22     8    34 1   
    23     9    10 ar  
    24     9    28 1   
    25    10    11 ar  
    26    10    29 1   
    27    11    14 ar  
    28    11    16 1   
    29    12    13 ar  
    30    12    16 1   
    31    13    30 1   
    32    14    15 ar  
    33    14    31 1   
    34    15    32 1   
    35    27    34 1   
    36    33    34 2   
@<TRIPOS>SUBSTRUCTURE
     1 V2N         1 TEMP              0 ****  ****    0 ROOT
