@<TRIPOS>MOLECULE
V2N
   34    36     1     0     0
SMALL
abcg2


@<TRIPOS>ATOM
      1 C10        -13.5260   -19.2400    -0.0060 ca         1 V2N       0.159100
      2 C12        -13.2750   -17.7760     1.8420 c3         1 V2N       0.147900
      3 C13        -12.9940   -19.7030    -1.2270 ca         1 V2N      -0.161000
      4 C14        -13.6150   -20.6970    -1.9520 ca         1 V2N      -0.015000
      5 C15        -14.7940   -21.2480    -1.4520 ca         1 V2N       0.038400
      6 C17        -16.5890   -22.3550    -1.1150 cc         1 V2N       0.426800
      7 C18        -17.7120   -23.3180    -1.2410 c3         1 V2N      -0.111400
      8 C03        -18.9970   -21.1340     3.2630 ca         1 V2N      -0.201600
      9 C04        -19.4970   -20.9520     1.9780 ca         1 V2N      -0.051500
     10 C05        -18.6630   -21.0610     0.8770 ca         1 V2N      -0.127500
     11 C06        -17.3240   -21.3790     1.0670 ca         1 V2N       0.038800
     12 C08        -15.3030   -20.7780    -0.2390 ca         1 V2N      -0.032200
     13 C09        -14.7010   -19.7710     0.5100 ca         1 V2N      -0.213000
     14 C19        -16.8150   -21.5680     2.3510 ca         1 V2N      -0.127500
     15 C20        -17.6480   -21.4390     3.4440 ca         1 V2N      -0.051500
     16 N07        -16.4610   -21.4980    -0.0410 na         1 V2N      -0.107400
     17 N16        -15.6130   -22.2290    -1.9630 nd         1 V2N      -0.560100
     18 O11        -12.8180   -18.2650     0.5990 os         1 V2N      -0.339100
     19 H1         -12.5550   -17.0280     2.1650 h1         1 V2N       0.041033
     20 H2         -14.2580   -17.3050     1.7610 h1         1 V2N       0.041033
     21 H3         -13.3260   -18.5650     2.5980 h1         1 V2N       0.041033
     22 H4         -12.0760   -19.2580    -1.5910 ha         1 V2N       0.130000
     23 H5         -13.1950   -21.0390    -2.8900 ha         1 V2N       0.132000
     24 H6         -17.4630   -24.0560    -2.0000 hc         1 V2N       0.059700
     25 H7         -17.9080   -23.8360    -0.3030 hc         1 V2N       0.059700
     26 H8         -18.6360   -22.8240    -1.5440 hc         1 V2N       0.059700
     27 H9         -20.9540   -20.7580     4.1380 h4         1 V2N      -0.007800
     28 H12        -20.5430   -20.7080     1.8330 ha         1 V2N       0.130000
     29 H13        -19.0480   -20.8880    -0.1190 ha         1 V2N       0.134000
     30 H14        -15.1370   -19.4320     1.4400 ha         1 V2N       0.127000
     31 H15        -15.7720   -21.8240     2.4870 ha         1 V2N       0.134000
     32 H16        -17.2530   -21.5860     4.4410 ha         1 V2N       0.130000
     33 O1         -19.5830   -21.1300     5.5650 o          1 V2N      -0.510100
     34 C02        -19.9110   -20.9980     4.4100 c          1 V2N       0.584500
@<TRIPOS>BOND
     1     1     3 ar  
     2     1    13 ar  
     3     1    18 1   
     4     2    18 1   
     5     2    19 1   
     6     2    20 1   
     7     2    21 1   
     8     3     4 ar  
     9     3    22 1   
    10     4     5 ar  
    11     4    23 1   
    12     5    12 ar  
    13     5    17 1   
    14     6     7 1   
    15     6    16 1   
    16     6    17 2   
    17     7    24 1   
    18     7    25 1   
    19     7    26 1   
    20     8     9 ar  
    21     8    15 ar  
    22     8    34 1   
    23     9    10 ar  
    24     9    28 1   
    25    10    11 ar  
    26    10    29 1   
    27    11    14 ar  
    28    11    16 1   
    29    12    13 ar  
    30    12    16 1   
    31    13    30 1   
    32    14    15 ar  
    33    14    31 1   
    34    15    32 1   
    35    27    34 1   
    36    33    34 2   
@<TRIPOS>SUBSTRUCTURE
     1 V2N         1 TEMP              0 ****  ****    0 ROOT
