@<TRIPOS>MOLECULE
V2O
   46    48     1     0     0
SMALL
abcg2


@<TRIPOS>ATOM
      1 C10        -32.9100    29.7910    -2.7610 ca         1 V2O       0.220000
      2 C12        -34.2780    29.6540    -2.7010 ca         1 V2O       0.189000
      3 C14        -34.8240    27.3060    -3.4520 c5         1 V2O       0.144800
      4 C15        -35.2510    26.7220    -4.7790 c          1 V2O       0.576000
      5 C2         -34.9960    30.4030    -1.7300 ca         1 V2O       0.165100
      6 C22        -27.9530    31.0790    -2.0490 c3         1 V2O       0.165600
      7 C23        -26.5150    31.4850    -1.7970 c3         1 V2O      -0.107400
      8 C24        -25.4770    30.6780    -2.5950 c3         1 V2O       0.180000
      9 C25        -25.7180    30.7490    -4.0980 c3         1 V2O      -0.100100
     10 C26        -24.0750    31.1820    -2.2530 c3         1 V2O      -0.100100
     11 C3         -34.3220    31.2530    -0.8860 ca         1 V2O      -0.206000
     12 C4         -32.9190    31.3850    -0.9600 ca         1 V2O       0.003000
     13 C5         -32.1970    32.2510    -0.0980 ca         1 V2O      -0.089000
     14 C6         -30.8390    32.3590    -0.1840 ca         1 V2O      -0.097000
     15 C7         -30.1070    31.6060    -1.1390 ca         1 V2O       0.141100
     16 C8         -30.7620    30.7550    -1.9960 ca         1 V2O      -0.172000
     17 C9         -32.1720    30.6370    -1.9150 ca         1 V2O      -0.063000
     18 F11        -32.2390    29.0620    -3.6750 f          1 V2O      -0.164000
     19 N13        -34.9550    28.7600    -3.5690 nh         1 V2O      -0.800300
     20 N16        -35.5580    27.7400    -5.6450 ns         1 V2O      -0.603300
     21 O1         -36.3400    30.2210    -1.6970 oh         1 V2O      -0.510100
     22 O20        -35.3180    25.5430    -5.0420 o          1 V2O      -0.487000
     23 O21        -28.7650    31.8060    -1.1150 os         1 V2O      -0.358100
     24 O27        -25.5790    29.2770    -2.2540 oh         1 V2O      -0.667000
     25 S17        -35.4960    29.2860    -5.0280 s6         1 V2O       1.353900
     26 H1         -35.4650    26.9110    -2.6620 h1         1 V2O       0.093200
     27 H2         -33.7900    27.0210    -3.2520 h1         1 V2O       0.093200
     28 H3         -28.2710    31.3270    -3.0640 h1         1 V2O       0.048200
     29 H4         -28.0890    30.0070    -1.8920 h1         1 V2O       0.048200
     30 H5         -26.2990    31.3570    -0.7320 hc         1 V2O       0.057700
     31 H6         -26.3920    32.5460    -2.0260 hc         1 V2O       0.057700
     32 H7         -25.7260    31.7880    -4.4310 hc         1 V2O       0.045533
     33 H8         -24.9240    30.2210    -4.6280 hc         1 V2O       0.045533
     34 H9         -26.6710    30.2920    -4.3660 hc         1 V2O       0.045533
     35 H10        -23.8900    31.1000    -1.1790 hc         1 V2O       0.045533
     36 H11        -23.3260    30.5910    -2.7830 hc         1 V2O       0.045533
     37 H12        -23.9590    32.2280    -2.5410 hc         1 V2O       0.045533
     38 H13        -34.8720    31.8240    -0.1470 ha         1 V2O       0.125000
     39 H14        -32.7430    32.8310     0.6360 ha         1 V2O       0.122000
     40 H15        -30.2910    33.0200     0.4750 ha         1 V2O       0.132000
     41 H16        -30.2300    30.1710    -2.7310 ha         1 V2O       0.136000
     42 H17        -35.9650    27.5770    -6.5590 hn         1 V2O       0.357500
     43 H18        -36.7270    30.7740    -1.0050 ho         1 V2O       0.470000
     44 H19        -25.3860    29.1830    -1.3120 ho         1 V2O       0.439000
     45 O18        -36.8220    29.8370    -4.9770 o          1 V2O      -0.533500
     46 O19        -34.5060    30.0830    -5.7020 o          1 V2O      -0.533500
@<TRIPOS>BOND
     1     1     2 ar  
     2     1    17 ar  
     3     1    18 1   
     4     2     5 ar  
     5     2    19 1   
     6     3     4 1   
     7     3    19 1   
     8     3    26 1   
     9     3    27 1   
    10     4    20 1   
    11     4    22 2   
    12     5    11 ar  
    13     5    21 1   
    14     6     7 1   
    15     6    23 1   
    16     6    28 1   
    17     6    29 1   
    18     7     8 1   
    19     7    30 1   
    20     7    31 1   
    21     8     9 1   
    22     8    10 1   
    23     8    24 1   
    24     9    32 1   
    25     9    33 1   
    26     9    34 1   
    27    10    35 1   
    28    10    36 1   
    29    10    37 1   
    30    11    12 ar  
    31    11    38 1   
    32    12    13 ar  
    33    12    17 ar  
    34    13    14 ar  
    35    13    39 1   
    36    14    15 ar  
    37    14    40 1   
    38    15    16 ar  
    39    15    23 1   
    40    16    17 ar  
    41    16    41 1   
    42    19    25 1   
    43    20    25 1   
    44    20    42 1   
    45    21    43 1   
    46    24    44 1   
    47    25    45 2   
    48    25    46 2   
@<TRIPOS>SUBSTRUCTURE
     1 V2O         1 TEMP              0 ****  ****    0 ROOT
