@<TRIPOS>MOLECULE
V2O
   46    48     1     0     0
SMALL
No Charge or Current Charge


@<TRIPOS>ATOM
      1 C10        -32.9550    29.7070    -2.7030 ca         1 V2O       0.220000
      2 C12        -34.3690    29.6020    -2.6310 ca         1 V2O       0.189000
      3 C14        -34.8510    27.2010    -3.4670 c5         1 V2O       0.144800
      4 C15        -35.1510    26.7050    -4.9250 c          1 V2O       0.576000
      5 C2         -35.0620    30.4410    -1.7150 ca         1 V2O       0.165100
      6 C22        -27.9410    31.0010    -2.0340 c3         1 V2O       0.165600
      7 C23        -26.4790    31.4360    -1.7860 c3         1 V2O      -0.107400
      8 C24        -25.4070    30.6690    -2.6100 c3         1 V2O       0.180000
      9 C25        -25.6220    30.8200    -4.1350 c3         1 V2O      -0.100100
     10 C26        -23.9890    31.1520    -2.2250 c3         1 V2O      -0.100100
     11 C3         -34.3570    31.3420    -0.9000 ca         1 V2O      -0.206000
     12 C4         -32.9580    31.4320    -0.9790 ca         1 V2O       0.003000
     13 C5         -32.2680    32.3400    -0.1550 ca         1 V2O      -0.089000
     14 C6         -30.8690    32.4380    -0.2300 ca         1 V2O      -0.097000
     15 C7         -30.1480    31.6330    -1.1250 ca         1 V2O       0.141100
     16 C8         -30.8370    30.7200    -1.9530 ca         1 V2O      -0.172000
     17 C9         -32.2460    30.6150    -1.8820 ca         1 V2O      -0.063000
     18 F11        -32.2680    28.9340    -3.5830 f          1 V2O      -0.164000
     19 N13        -35.0820    28.6910    -3.4630 nh         1 V2O      -0.800300
     20 N16        -35.5870    27.7600    -5.6470 ns         1 V2O      -0.603300
     21 O1         -36.4270    30.3870    -1.5950 oh         1 V2O      -0.510100
     22 O20        -35.0250    25.5830    -5.3910 o          1 V2O      -0.487000
     23 O21        -28.7750    31.7750    -1.1540 os         1 V2O      -0.358100
     24 O27        -25.4920    29.2800    -2.2920 oh         1 V2O      -0.667000
     25 S17        -35.7030    29.2420    -4.9570 s6         1 V2O       1.353900
     26 H1         -35.5300    26.6800    -2.7790 h1         1 V2O       0.093200
     27 H2         -33.8170    26.9280    -3.2210 h1         1 V2O       0.093200
     28 H3         -28.2140    31.1870    -3.0810 h1         1 V2O       0.048200
     29 H4         -28.0510    29.9290    -1.8260 h1         1 V2O       0.048200
     30 H5         -26.2610    31.3190    -0.7170 hc         1 V2O       0.057700
     31 H6         -26.3940    32.5080    -2.0030 hc         1 V2O       0.057700
     32 H7         -25.6300    31.8770    -4.4240 hc         1 V2O       0.045533
     33 H8         -24.8190    30.3230    -4.6920 hc         1 V2O       0.045533
     34 H9         -26.5700    30.3700    -4.4540 hc         1 V2O       0.045533
     35 H10        -23.8070    31.0310    -1.1500 hc         1 V2O       0.045533
     36 H11        -23.2200    30.5850    -2.7660 hc         1 V2O       0.045533
     37 H12        -23.8610    32.2130    -2.4710 hc         1 V2O       0.045533
     38 H13        -34.8950    31.9760    -0.2000 ha         1 V2O       0.125000
     39 H14        -32.8130    32.9720     0.5430 ha         1 V2O       0.122000
     40 H15        -30.3400    33.1410     0.4070 ha         1 V2O       0.132000
     41 H16        -30.2910    30.0910    -2.6500 ha         1 V2O       0.136000
     42 H17        -35.8110    27.7080    -6.6240 hn         1 V2O       0.357500
     43 H18        -36.7050    31.0230    -0.9030 ho         1 V2O       0.470000
     44 H19        -25.1640    29.1740    -1.3730 ho         1 V2O       0.439000
     45 O18        -37.1150    29.5900    -4.7950 o          1 V2O      -0.533500
     46 O19        -34.7350    30.1480    -5.5770 o          1 V2O      -0.533500
@<TRIPOS>BOND
     1     1     2 ar  
     2     1    17 ar  
     3     1    18 1   
     4     2     5 ar  
     5     2    19 1   
     6     3     4 1   
     7     3    19 1   
     8     3    26 1   
     9     3    27 1   
    10     4    20 1   
    11     4    22 2   
    12     5    11 ar  
    13     5    21 1   
    14     6     7 1   
    15     6    23 1   
    16     6    28 1   
    17     6    29 1   
    18     7     8 1   
    19     7    30 1   
    20     7    31 1   
    21     8     9 1   
    22     8    10 1   
    23     8    24 1   
    24     9    32 1   
    25     9    33 1   
    26     9    34 1   
    27    10    35 1   
    28    10    36 1   
    29    10    37 1   
    30    11    12 ar  
    31    11    38 1   
    32    12    13 ar  
    33    12    17 ar  
    34    13    14 ar  
    35    13    39 1   
    36    14    15 ar  
    37    14    40 1   
    38    15    16 ar  
    39    15    23 1   
    40    16    17 ar  
    41    16    41 1   
    42    19    25 1   
    43    20    25 1   
    44    20    42 1   
    45    21    43 1   
    46    24    44 1   
    47    25    45 2   
    48    25    46 2   
@<TRIPOS>SUBSTRUCTURE
     1 V2O         1 TEMP              0 ****  ****    0 ROOT
