@<TRIPOS>MOLECULE
V2P
   49    52     1     0     0
SMALL
No Charge or Current Charge


@<TRIPOS>ATOM
      1 C           39.2490     2.3690    12.0940 c          1 V2P       0.710000
      2 N           36.5770     2.0300    11.8420 n3         1 V2P      -0.831700
      3 O           39.7720     1.9310    11.0730 o          1 V2P      -0.745500
      4 C2          35.7350     1.9950    16.7650 ca         1 V2P       0.174900
      5 C4          36.9530     3.8890    17.1800 ca         1 V2P       0.115500
      6 C5          37.0410     3.5400    18.5050 ca         1 V2P      -0.075600
      7 C6          36.4230     2.3400    18.9190 ca         1 V2P       0.444900
      8 C8          38.1070     5.4060    18.3400 cc         1 V2P       0.474700
      9 N9          37.6320     5.0720    17.0690 na         1 V2P      -0.283300
     10 CA          37.8400     1.7930    12.6210 c5         1 V2P       0.148500
     11 CB          37.8620     0.2340    12.5830 c5         1 V2P      -0.075400
     12 CG          37.2610    -0.1230    11.1810 c5         1 V2P      -0.100400
     13 OXT         39.8650     3.1500    12.8140 o          1 V2P      -0.745500
     14 CD          36.7340     1.2340    10.6210 c5         1 V2P       0.252800
     15 O1A         37.2360     4.2650    10.7440 o          1 V2P      -0.859500
     16 O2A         34.8460     3.6090    10.8250 o          1 V2P      -0.859500
     17 O5          36.0690     4.1930    13.0370 os         1 V2P      -0.575400
     18 C10         35.5750     5.5260    13.2610 c3         1 V2P       0.219600
     19 C9          36.6580     6.4540    13.9070 c5         1 V2P       0.153300
     20 O4          36.5890     6.3600    15.3630 os         1 V2P      -0.453000
     21 C3          38.1480     6.1550    13.5280 c5         1 V2P       0.149300
     22 O3          39.0030     7.3130    13.6130 oh         1 V2P      -0.756000
     23 C7          38.4970     5.1380    14.6490 c5         1 V2P       0.102300
     24 O2          39.9180     4.8950    14.7250 oh         1 V2P      -0.753000
     25 C1          37.8550     5.8690    15.8650 c5         1 V2P       0.291300
     26 N7          37.7580     4.4780    19.2560 nd         1 V2P      -0.579100
     27 N3          36.2990     3.1260    16.2810 nb         1 V2P      -0.234000
     28 N1          35.7630     1.5610    18.0490 nb         1 V2P      -0.326000
     29 N6          36.4450     1.9040    20.2080 nv         1 V2P      -1.081900
     30 H2          38.6810     6.3070    18.5260 h5         1 V2P       0.105800
     31 H3          37.7210     2.1340    13.6580 h1         1 V2P       0.004700
     32 H4          37.2340    -0.1760    13.3820 hc         1 V2P       0.025200
     33 H5          38.8660    -0.1790    12.7310 hc         1 V2P       0.025200
     34 H6          36.4520    -0.8550    11.2810 hc         1 V2P       0.008200
     35 H7          38.0090    -0.5640    10.5130 hc         1 V2P       0.008200
     36 H9          37.4580     1.6820     9.9280 h1         1 V2P       0.008700
     37 H10         35.7870     1.1050    10.0790 h1         1 V2P       0.008700
     38 H12         35.2650     5.9850    12.3120 h1         1 V2P       0.023700
     39 H13         34.6900     5.5000    13.9090 h1         1 V2P       0.023700
     40 H14         36.3970     7.4840    13.6290 h1         1 V2P       0.051700
     41 H15         38.2310     5.6980    12.5340 h1         1 V2P       0.091700
     42 H16         39.8590     6.9550    13.9550 ho         1 V2P       0.515000
     43 H17         37.9620     4.1930    14.4910 h1         1 V2P       0.155700
     44 H18         40.0790     4.2030    14.0020 ho         1 V2P       0.552000
     45 H19         38.4780     6.7220    16.1610 h2         1 V2P       0.052700
     46 H20         35.7560     1.2110    20.4880 hn         1 V2P       0.493500
     47 H21         36.7420     2.5700    20.9170 hn         1 V2P       0.493500
     48 PA          36.1570     3.6160    11.5360 p5         1 V2P       1.423700
     49 H1          35.2040     1.3700    16.0490 h5         1 V2P       0.026100
@<TRIPOS>BOND
     1     1     3 1   
     2     1    10 1   
     3     1    13 1   
     4     2    10 1   
     5     2    14 1   
     6     2    48 1   
     7     4    27 ar  
     8     4    28 ar  
     9     4    49 1   
    10     5     6 ar  
    11     5     9 1   
    12     5    27 ar  
    13     6     7 ar  
    14     6    26 1   
    15     7    28 ar  
    16     7    29 1   
    17     8     9 1   
    18     8    26 2   
    19     8    30 1   
    20     9    25 1   
    21    10    11 1   
    22    10    31 1   
    23    11    12 1   
    24    11    32 1   
    25    11    33 1   
    26    12    14 1   
    27    12    34 1   
    28    12    35 1   
    29    14    36 1   
    30    14    37 1   
    31    15    48 1   
    32    16    48 1   
    33    17    18 1   
    34    17    48 1   
    35    18    19 1   
    36    18    38 1   
    37    18    39 1   
    38    19    20 1   
    39    19    21 1   
    40    19    40 1   
    41    20    25 1   
    42    21    22 1   
    43    21    23 1   
    44    21    41 1   
    45    22    42 1   
    46    23    24 1   
    47    23    25 1   
    48    23    43 1   
    49    24    44 1   
    50    25    45 1   
    51    29    46 1   
    52    29    47 1   
@<TRIPOS>SUBSTRUCTURE
     1 V2P         1 TEMP              0 ****  ****    0 ROOT
