@<TRIPOS>MOLECULE
V2P
   49    52     1     0     0
SMALL
abcg2


@<TRIPOS>ATOM
      1 C           38.8560     2.3640    12.3080 c          1 V2P       0.710000
      2 N           36.3120     2.2880    12.5070 n3         1 V2P      -0.831700
      3 O           38.7760     2.2560    11.0700 o          1 V2P      -0.745500
      4 C2          39.1290     2.2700    17.4160 ca         1 V2P       0.174900
      5 C4          37.5780     3.5780    16.5550 ca         1 V2P       0.115500
      6 C5          36.5840     2.6350    16.7600 ca         1 V2P      -0.075600
      7 C6          36.9910     1.4210    17.3420 ca         1 V2P       0.444900
      8 C8          35.6520     4.2730    15.8040 cc         1 V2P       0.474700
      9 N9          36.9640     4.6260    15.9410 na         1 V2P      -0.283300
     10 CA          37.5980     2.0770    13.1520 c5         1 V2P       0.148500
     11 CB          37.5620     0.5860    13.5370 c5         1 V2P      -0.075400
     12 CG          36.0780     0.2650    13.6460 c5         1 V2P      -0.100400
     13 OXT         39.8860     2.6200    12.9720 o          1 V2P      -0.745500
     14 CD          35.4880     1.0940    12.5140 c5         1 V2P       0.252800
     15 O1A         35.5790     3.8830    10.5140 o          1 V2P      -0.859500
     16 O2A         34.3820     4.0570    12.7800 o          1 V2P      -0.859500
     17 O5          36.8640     4.7330    12.5780 os         1 V2P      -0.575400
     18 C10         36.7260     6.1140    12.3610 c3         1 V2P       0.219600
     19 C9          37.3720     6.9120    13.4760 c5         1 V2P       0.153300
     20 O4          36.7750     6.6110    14.7420 os         1 V2P      -0.453000
     21 C3          38.8670     6.6980    13.6820 c5         1 V2P       0.149300
     22 O3          39.4020     7.8780    14.2290 oh         1 V2P      -0.756000
     23 C7          38.8970     5.5590    14.6930 c5         1 V2P       0.102300
     24 O2          40.0830     5.5680    15.4320 oh         1 V2P      -0.753000
     25 C1          37.6340     5.8560    15.5290 c5         1 V2P       0.291300
     26 N7          35.3840     3.0910    16.2840 nd         1 V2P      -0.579100
     27 N3          38.8700     3.4470    16.8700 nb         1 V2P      -0.234000
     28 N1          38.2830     1.2770    17.6630 nb         1 V2P      -0.326000
     29 N6          36.1460     0.4180    17.5830 nv         1 V2P      -1.081900
     30 H2          34.9380     4.9170    15.3200 h5         1 V2P       0.105800
     31 H3          37.6670     2.6650    14.0730 h1         1 V2P       0.004700
     32 H4          38.1200     0.3890    14.4530 hc         1 V2P       0.025200
     33 H5          38.0070    -0.0210    12.7430 hc         1 V2P       0.025200
     34 H6          35.6790     0.6050    14.6050 hc         1 V2P       0.008200
     35 H7          35.8610    -0.8000    13.5510 hc         1 V2P       0.008200
     36 H9          35.5450     0.5370    11.5670 h1         1 V2P       0.008700
     37 H10         34.4340     1.3310    12.6790 h1         1 V2P       0.008700
     38 H12         37.1910     6.4180    11.4150 h1         1 V2P       0.023700
     39 H13         35.6730     6.4150    12.3060 h1         1 V2P       0.023700
     40 H14         37.1810     7.9680    13.2580 h1         1 V2P       0.051700
     41 H15         39.3720     6.4220    12.7470 h1         1 V2P       0.091700
     42 H16         40.2080     7.6460    14.7040 ho         1 V2P       0.515000
     43 H17         38.7650     4.6140    14.1590 h1         1 V2P       0.155700
     44 H18         40.0080     4.8290    16.0640 ho         1 V2P       0.552000
     45 H19         37.8980     6.4080    16.4390 h2         1 V2P       0.052700
     46 H20         36.4860    -0.4540    17.9530 hn         1 V2P       0.493500
     47 H21         35.1800     0.4780    17.3130 hn         1 V2P       0.493500
     48 PA          35.6460     3.7560    12.0130 p5         1 V2P       1.423700
     49 H1          40.1610     2.0910    17.6960 h5         1 V2P       0.026100
@<TRIPOS>BOND
     1     1     3 1   
     2     1    10 1   
     3     1    13 1   
     4     2    10 1   
     5     2    14 1   
     6     2    48 1   
     7     4    27 ar  
     8     4    28 ar  
     9     4    49 1   
    10     5     6 ar  
    11     5     9 1   
    12     5    27 ar  
    13     6     7 ar  
    14     6    26 1   
    15     7    28 ar  
    16     7    29 1   
    17     8     9 1   
    18     8    26 2   
    19     8    30 1   
    20     9    25 1   
    21    10    11 1   
    22    10    31 1   
    23    11    12 1   
    24    11    32 1   
    25    11    33 1   
    26    12    14 1   
    27    12    34 1   
    28    12    35 1   
    29    14    36 1   
    30    14    37 1   
    31    15    48 1   
    32    16    48 1   
    33    17    18 1   
    34    17    48 1   
    35    18    19 1   
    36    18    38 1   
    37    18    39 1   
    38    19    20 1   
    39    19    21 1   
    40    19    40 1   
    41    20    25 1   
    42    21    22 1   
    43    21    23 1   
    44    21    41 1   
    45    22    42 1   
    46    23    24 1   
    47    23    25 1   
    48    23    43 1   
    49    24    44 1   
    50    25    45 1   
    51    29    46 1   
    52    29    47 1   
@<TRIPOS>SUBSTRUCTURE
     1 V2P         1 TEMP              0 ****  ****    0 ROOT
