@<TRIPOS>MOLECULE
V2Q
   29    30     1     0     0
SMALL
bcc


@<TRIPOS>ATOM
      1 C01         24.8730    15.8210     1.1630 c3         1 V2Q       0.119700
      2 C03         25.9020    17.7740     0.4140 cy         1 V2Q       0.104100
      3 C04         26.4150    19.1740     0.7840 cy         1 V2Q       0.082000
      4 C07         24.4730    21.2210    -1.7800 ca         1 V2Q      -0.115600
      5 C08         24.8710    21.9480    -2.9030 ca         1 V2Q      -0.106000
      6 C09         23.9530    22.2800    -3.8800 ca         1 V2Q      -0.088000
      7 C10         22.6170    21.9070    -3.7340 ca         1 V2Q      -0.184600
      8 C11         22.2170    21.1970    -2.6070 ca         1 V2Q      -0.088000
      9 C12         23.1410    20.8490    -1.6350 ca         1 V2Q      -0.106000
     10 C13         21.6080    22.2650    -4.7460 c          1 V2Q       0.581500
     11 C15         24.8630    18.4510    -0.5170 cy         1 V2Q       0.082000
     12 N05         25.4400    19.7390    -0.1360 nj         1 V2Q      -0.478800
     13 O02         25.3990    17.0810     1.5080 os         1 V2Q      -0.385600
     14 O14         26.3250    21.7810    -0.4100 o          1 V2Q      -0.589100
     15 H1          24.5360    15.3390     2.0790 h1         1 V2Q       0.033367
     16 H2          24.0170    15.8990     0.4830 h1         1 V2Q       0.033367
     17 H3          25.6260    15.1810     0.6890 h1         1 V2Q       0.033367
     18 H4          26.6340    17.1730    -0.1400 h1         1 V2Q       0.054700
     19 H5          27.4520    19.3830     0.5150 h1         1 V2Q       0.066950
     20 H6          26.2500    19.4540     1.8260 h1         1 V2Q       0.066950
     21 H7          25.9040    22.2500    -3.0100 ha         1 V2Q       0.148000
     22 H8          24.2700    22.8350    -4.7530 ha         1 V2Q       0.145000
     23 H9          21.1760    20.9190    -2.4860 ha         1 V2Q       0.145000
     24 H10         22.8080    20.3160    -0.7540 ha         1 V2Q       0.148000
     25 H11         20.5850    21.9160    -4.5180 h4         1 V2Q      -0.009800
     26 H14         23.8280    18.3150    -0.1990 h1         1 V2Q       0.066950
     27 H15         24.9490    18.2200    -1.5790 h1         1 V2Q       0.066950
     28 O1          21.8430    22.8900    -5.7530 o          1 V2Q      -0.510100
     29 C06         25.4920    20.9390    -0.7220 c          1 V2Q       0.684700
@<TRIPOS>BOND
     1     1    13 1   
     2     1    15 1   
     3     1    16 1   
     4     1    17 1   
     5     2     3 1   
     6     2    11 1   
     7     2    13 1   
     8     2    18 1   
     9     3    12 1   
    10     3    19 1   
    11     3    20 1   
    12     4     5 ar  
    13     4     9 ar  
    14     4    29 1   
    15     5     6 ar  
    16     5    21 1   
    17     6     7 ar  
    18     6    22 1   
    19     7     8 ar  
    20     7    10 1   
    21     8     9 ar  
    22     8    23 1   
    23     9    24 1   
    24    10    25 1   
    25    10    28 2   
    26    11    12 1   
    27    11    26 1   
    28    11    27 1   
    29    12    29 1   
    30    14    29 2   
@<TRIPOS>SUBSTRUCTURE
     1 V2Q         1 TEMP              0 ****  ****    0 ROOT
