@<TRIPOS>MOLECULE
V2Q
   29    30     1     0     0
SMALL
No Charge or Current Charge


@<TRIPOS>ATOM
      1 C01         26.0480    15.6630     1.5740 c3         1 V2Q       0.142900
      2 C03         25.8110    17.9470     0.7250 cy         1 V2Q       0.127300
      3 C04         25.1100    19.3370     0.8920 cy         1 V2Q       0.082000
      4 C07         24.2260    20.8050    -2.1420 ca         1 V2Q      -0.115600
      5 C08         24.8100    21.6590    -3.1090 ca         1 V2Q      -0.088000
      6 C09         24.0200    22.5140    -3.8950 ca         1 V2Q      -0.070000
      7 C10         22.6200    22.5400    -3.7350 ca         1 V2Q      -0.184600
      8 C11         22.0270    21.6970    -2.7770 ca         1 V2Q      -0.070000
      9 C12         22.8160    20.8400    -1.9900 ca         1 V2Q      -0.088000
     10 C13         21.7580    23.4520    -4.5690 c          1 V2Q       0.581500
     11 C15         24.9570    17.7420    -0.5730 cy         1 V2Q       0.082000
     12 N05         24.3400    19.1000    -0.3790 nj         1 V2Q      -0.411800
     13 O02         25.5940    17.0100     1.7910 os         1 V2Q      -0.432000
     14 O14         26.3240    19.9260    -1.5050 o          1 V2Q      -0.589100
     15 H1          25.8450    15.0450     2.4580 h1         1 V2Q       0.033367
     16 H2          25.5360    15.2090     0.7160 h1         1 V2Q       0.033367
     17 H3          27.1290    15.6430     1.3850 h1         1 V2Q       0.033367
     18 H4          26.8840    18.0380     0.5210 h1         1 V2Q       0.054700
     19 H5          25.7900    20.1980     0.9080 h1         1 V2Q       0.066950
     20 H6          24.4460    19.3840     1.7620 h1         1 V2Q       0.066950
     21 H7          25.8880    21.6650    -3.2590 ha         1 V2Q       0.130000
     22 H8          24.5010    23.1570    -4.6290 ha         1 V2Q       0.127000
     23 H9          20.9470    21.7010    -2.6370 ha         1 V2Q       0.127000
     24 H10         22.3120    20.2080    -1.2630 ha         1 V2Q       0.130000
     25 H11         20.6640    23.4020    -4.3710 h4         1 V2Q      -0.009800
     26 H14         24.2090    16.9470    -0.4820 h1         1 V2Q       0.066950
     27 H15         25.5390    17.5880    -1.4910 h1         1 V2Q       0.066950
     28 O1          22.2060    24.2120    -5.4220 o          1 V2Q      -0.510100
     29 C06         25.1090    19.8880    -1.3040 c          1 V2Q       0.617700
@<TRIPOS>BOND
     1     1    13 1   
     2     1    15 1   
     3     1    16 1   
     4     1    17 1   
     5     2     3 1   
     6     2    11 1   
     7     2    13 1   
     8     2    18 1   
     9     3    12 1   
    10     3    19 1   
    11     3    20 1   
    12     4     5 ar  
    13     4     9 ar  
    14     4    29 1   
    15     5     6 ar  
    16     5    21 1   
    17     6     7 ar  
    18     6    22 1   
    19     7     8 ar  
    20     7    10 1   
    21     8     9 ar  
    22     8    23 1   
    23     9    24 1   
    24    10    25 1   
    25    10    28 2   
    26    11    12 1   
    27    11    26 1   
    28    11    27 1   
    29    12    29 1   
    30    14    29 2   
@<TRIPOS>SUBSTRUCTURE
     1 V2Q         1 TEMP              0 ****  ****    0 ROOT
