@<TRIPOS>MOLECULE
V2R
   16    17     1     0     0
SMALL
abcg2


@<TRIPOS>ATOM
      1 C02        -13.0070   -13.6710    -5.4410 cc         1 V2R       0.773500
      2 C04        -14.6410   -14.5090    -6.4740 ca         1 V2R       0.126400
      3 C05        -15.6550   -14.8560    -7.3560 ca         1 V2R      -0.116000
      4 C06        -16.4150   -15.9590    -7.0090 ca         1 V2R       0.169000
      5 C08        -16.2250   -16.6990    -5.8500 ca         1 V2R      -0.156000
      6 C09        -15.2090   -16.3440    -4.9630 ca         1 V2R      -0.053000
      7 C10        -14.4470   -15.2570    -5.3150 ca         1 V2R      -0.009900
      8 F07        -17.3900   -16.3440    -7.8520 f          1 V2R      -0.178000
      9 N01        -11.9360   -12.9800    -5.0460 nv         1 V2R      -1.024200
     10 N03        -13.7050   -13.4990    -6.5220 nd         1 V2R      -0.656100
     11 O11        -13.3880   -14.7000    -4.6560 os         1 V2R      -0.305700
     12 H1         -15.8420   -14.3040    -8.2680 ha         1 V2R       0.150000
     13 H2         -16.8620   -17.5470    -5.6400 ha         1 V2R       0.136000
     14 H3         -15.0380   -16.9060    -4.0550 ha         1 V2R       0.135000
     15 H4         -11.7290   -12.1200    -5.5240 hn         1 V2R       0.506000
     16 H5         -11.6060   -13.0610    -4.0980 hn         1 V2R       0.506000
@<TRIPOS>BOND
     1     1     9 1   
     2     1    10 2   
     3     1    11 1   
     4     2     3 ar  
     5     2     7 ar  
     6     2    10 1   
     7     3     4 ar  
     8     3    12 1   
     9     4     5 ar  
    10     4     8 1   
    11     5     6 ar  
    12     5    13 1   
    13     6     7 ar  
    14     6    14 1   
    15     7    11 1   
    16     9    15 1   
    17     9    16 1   
@<TRIPOS>SUBSTRUCTURE
     1 V2R         1 TEMP              0 ****  ****    0 ROOT
