@<TRIPOS>MOLECULE
V2R
   16    17     1     0     0
SMALL
No Charge or Current Charge


@<TRIPOS>ATOM
      1 C02        -12.9520   -13.7460    -5.4460 cc         1 V2R       0.773500
      2 C04        -14.5790   -14.5420    -6.4590 ca         1 V2R       0.126400
      3 C05        -15.6140   -14.8560    -7.3470 ca         1 V2R      -0.116000
      4 C06        -16.4510   -15.9440    -7.0270 ca         1 V2R       0.169000
      5 C08        -16.2480   -16.6910    -5.8440 ca         1 V2R      -0.156000
      6 C09        -15.1960   -16.3540    -4.9640 ca         1 V2R      -0.053000
      7 C10        -14.3850   -15.2670    -5.3140 ca         1 V2R      -0.009900
      8 F07        -17.4610   -16.2770    -7.8600 f          1 V2R      -0.178000
      9 N01        -11.9270   -12.9820    -5.0860 nv         1 V2R      -1.024200
     10 N03        -13.6440   -13.5320    -6.5570 nd         1 V2R      -0.656100
     11 O11        -13.3300   -14.7790    -4.6160 os         1 V2R      -0.305700
     12 H1         -15.7680   -14.2800    -8.2540 ha         1 V2R       0.150000
     13 H2         -16.9040   -17.5270    -5.6130 ha         1 V2R       0.136000
     14 H3         -15.0210   -16.9140    -4.0480 ha         1 V2R       0.135000
     15 H4         -11.9070   -12.0770    -5.5370 hn         1 V2R       0.506000
     16 H5         -11.7080   -12.9880    -4.0970 hn         1 V2R       0.506000
@<TRIPOS>BOND
     1     1     9 1   
     2     1    10 2   
     3     1    11 1   
     4     2     3 ar  
     5     2     7 ar  
     6     2    10 1   
     7     3     4 ar  
     8     3    12 1   
     9     4     5 ar  
    10     4     8 1   
    11     5     6 ar  
    12     5    13 1   
    13     6     7 ar  
    14     6    14 1   
    15     7    11 1   
    16     9    15 1   
    17     9    16 1   
@<TRIPOS>SUBSTRUCTURE
     1 V2R         1 TEMP              0 ****  ****    0 ROOT
