@<TRIPOS>MOLECULE
V2T
   28    29     1     0     0
SMALL
No Charge or Current Charge


@<TRIPOS>ATOM
      1 C01        -27.0100   -25.0730     4.2520 c3         1 V2T       0.072900
      2 C03        -27.0060   -22.5560     3.8230 cc         1 V2T      -0.162000
      3 C04        -26.4870   -21.8200     2.7970 cd         1 V2T      -0.219000
      4 C05        -25.8820   -22.7240     1.8970 cd         1 V2T       0.376900
      5 C07        -25.0250   -21.1710     0.1450 c          1 V2T       0.620700
      6 C08        -24.2670   -21.1810    -1.1720 ca         1 V2T      -0.123600
      7 C09        -23.8030   -22.3760    -1.7770 ca         1 V2T      -0.086500
      8 C10        -23.1050   -22.3400    -2.9980 ca         1 V2T      -0.069500
      9 C11        -22.8520   -21.1130    -3.6430 ca         1 V2T      -0.181600
     10 C12        -23.3090   -19.9210    -3.0490 ca         1 V2T      -0.069500
     11 C13        -24.0070   -19.9560    -1.8300 ca         1 V2T      -0.086500
     12 C14        -22.1050   -21.0610    -4.9510 c          1 V2T       0.582500
     13 N02        -26.6820   -23.8650     3.4800 na         1 V2T       0.136800
     14 N06        -25.2420   -22.4000     0.7290 ns         1 V2T      -0.465400
     15 N16        -25.9880   -23.9720     2.2900 nc         1 V2T      -0.583800
     16 O15        -25.4140   -20.1250     0.6460 o          1 V2T      -0.575100
     17 H1         -26.0840   -25.5900     4.5330 h1         1 V2T       0.057367
     18 H2         -27.5590   -24.7960     5.1590 h1         1 V2T       0.057367
     19 H3         -27.6300   -25.7400     3.6430 h1         1 V2T       0.057367
     20 H4         -27.5480   -22.2820     4.7200 h4         1 V2T       0.154000
     21 H5         -26.5420   -20.7420     2.7110 ha         1 V2T       0.170000
     22 H6         -23.9720   -23.3480    -1.3210 ha         1 V2T       0.131000
     23 H7         -22.7600   -23.2730    -3.4400 ha         1 V2T       0.129000
     24 H8         -23.1250   -18.9620    -3.5310 ha         1 V2T       0.129000
     25 H9         -24.3470   -19.0170    -1.3960 ha         1 V2T       0.131000
     26 H10        -21.9540   -20.0480    -5.3840 h4         1 V2T      -0.007800
     27 H13        -24.8660   -23.1740     0.2060 hn         1 V2T       0.335500
     28 O1         -21.6780   -22.0580    -5.5260 o          1 V2T      -0.509100
@<TRIPOS>BOND
     1     1    13 1   
     2     1    17 1   
     3     1    18 1   
     4     1    19 1   
     5     2     3 2   
     6     2    13 1   
     7     2    20 1   
     8     3     4 1   
     9     3    21 1   
    10     4    14 1   
    11     4    15 2   
    12     5     6 1   
    13     5    14 1   
    14     5    16 2   
    15     6     7 ar  
    16     6    11 ar  
    17     7     8 ar  
    18     7    22 1   
    19     8     9 ar  
    20     8    23 1   
    21     9    10 ar  
    22     9    12 1   
    23    10    11 ar  
    24    10    24 1   
    25    11    25 1   
    26    12    26 1   
    27    12    28 2   
    28    13    15 1   
    29    14    27 1   
@<TRIPOS>SUBSTRUCTURE
     1 V2T         1 TEMP              0 ****  ****    0 ROOT
