@<TRIPOS>MOLECULE
V2T
   28    29     1     0     0
SMALL
abcg2


@<TRIPOS>ATOM
      1 C01        -26.6290   -24.9370     4.3840 c3         1 V2T       0.072900
      2 C03        -27.2300   -22.6400     3.6150 cc         1 V2T      -0.162000
      3 C04        -26.8540   -21.8390     2.5600 cd         1 V2T      -0.219000
      4 C05        -25.9310   -22.6350     1.8590 cd         1 V2T       0.376900
      5 C07        -25.2280   -21.2370    -0.0190 c          1 V2T       0.620700
      6 C08        -24.3770   -21.2440    -1.2500 ca         1 V2T      -0.123600
      7 C09        -24.1610   -22.3980    -2.0050 ca         1 V2T      -0.086500
      8 C10        -23.3890   -22.3470    -3.1510 ca         1 V2T      -0.069500
      9 C11        -22.8190   -21.1410    -3.5530 ca         1 V2T      -0.181600
     10 C12        -23.0400   -19.9890    -2.8050 ca         1 V2T      -0.069500
     11 C13        -23.8240   -20.0360    -1.6650 ca         1 V2T      -0.086500
     12 C14        -21.9830   -21.0580    -4.7650 c          1 V2T       0.582500
     13 N02        -26.5600   -23.7950     3.5020 na         1 V2T       0.136800
     14 N06        -25.2080   -22.3820     0.6990 ns         1 V2T      -0.465400
     15 N16        -25.7620   -23.8100     2.4370 nc         1 V2T      -0.583800
     16 O15        -25.8740   -20.2530     0.2960 o          1 V2T      -0.575100
     17 H1         -25.9730   -25.7100     3.9970 h1         1 V2T       0.057367
     18 H2         -26.3060   -24.6690     5.3880 h1         1 V2T       0.057367
     19 H3         -27.6450   -25.3260     4.4290 h1         1 V2T       0.057367
     20 H4         -27.9200   -22.4590     4.4230 h4         1 V2T       0.154000
     21 H5         -27.1970   -20.8450     2.3430 ha         1 V2T       0.170000
     22 H6         -24.6130   -23.3410    -1.7230 ha         1 V2T       0.131000
     23 H7         -23.2360   -23.2440    -3.7360 ha         1 V2T       0.129000
     24 H8         -22.5980   -19.0490    -3.1160 ha         1 V2T       0.129000
     25 H9         -23.9950   -19.1350    -1.0910 ha         1 V2T       0.131000
     26 H10        -21.5950   -20.0480    -4.9840 h4         1 V2T      -0.007800
     27 H13        -24.5770   -23.1210     0.4250 hn         1 V2T       0.335500
     28 O1         -21.7250   -21.9960    -5.4790 o          1 V2T      -0.509100
@<TRIPOS>BOND
     1     1    13 1   
     2     1    17 1   
     3     1    18 1   
     4     1    19 1   
     5     2     3 2   
     6     2    13 1   
     7     2    20 1   
     8     3     4 1   
     9     3    21 1   
    10     4    14 1   
    11     4    15 2   
    12     5     6 1   
    13     5    14 1   
    14     5    16 2   
    15     6     7 ar  
    16     6    11 ar  
    17     7     8 ar  
    18     7    22 1   
    19     8     9 ar  
    20     8    23 1   
    21     9    10 ar  
    22     9    12 1   
    23    10    11 ar  
    24    10    24 1   
    25    11    25 1   
    26    12    26 1   
    27    12    28 2   
    28    13    15 1   
    29    14    27 1   
@<TRIPOS>SUBSTRUCTURE
     1 V2T         1 TEMP              0 ****  ****    0 ROOT
