@<TRIPOS>MOLECULE
V2U
   27    27     1     0     0
SMALL
No Charge or Current Charge


@<TRIPOS>ATOM
      1 C7          38.5870    29.0740    27.8130 c3         1 V2U       0.148900
      2 C8          44.6630    26.9910    26.6560 c          1 V2U       0.602100
      3 C9          45.6970    27.5040    27.6650 c3         1 V2U       0.034600
      4 O1          38.6060    28.3330    26.5800 os         1 V2U      -0.346600
      5 C1          40.8100    26.5140    24.2800 ca         1 V2U       0.197100
      6 C5          39.7630    27.7900    26.0630 ca         1 V2U       0.197100
      7 C6          39.6720    27.0870    24.8570 ca         1 V2U      -0.203000
      8 C4          41.0140    27.9180    26.7010 ca         1 V2U      -0.268000
      9 C3          42.1680    27.3440    26.1390 ca         1 V2U       0.044000
     10 C2          42.0600    26.6440    24.9190 ca         1 V2U      -0.268000
     11 Cl          45.4800    26.8000    29.3380 cl         1 V2U      -0.247000
     12 O2          44.9590    26.1760    25.7870 o          1 V2U      -0.563100
     13 N           43.3910    27.5200    26.8400 ns         1 V2U      -0.140000
     14 C           41.7510    25.2090    22.4050 c3         1 V2U       0.148900
     15 H1          37.5690    29.4140    28.0370 h1         1 V2U       0.044367
     16 H2          38.9280    28.4490    28.6490 h1         1 V2U       0.044367
     17 H3          39.2340    29.9580    27.7470 h1         1 V2U       0.044367
     18 H4          46.7000    27.2400    27.3110 h1         1 V2U       0.087700
     19 H5          45.6150    28.5950    27.7400 h1         1 V2U       0.087700
     20 H6          38.7100    26.9870    24.3640 ha         1 V2U       0.145000
     21 H7          41.1050    28.4600    27.6370 ha         1 V2U       0.135000
     22 H8          42.9410    26.2100    24.4650 ha         1 V2U       0.135000
     23 H9          43.3190    28.1530    27.6260 hn         1 V2U       0.152000
     24 H10         41.4010    24.7290    21.4830 h1         1 V2U       0.044367
     25 H11         42.5170    25.9460    22.1350 h1         1 V2U       0.044367
     26 H12         42.2100    24.4370    23.0360 h1         1 V2U       0.044367
     27 O           40.6510    25.8390    23.0870 os         1 V2U      -0.346600
@<TRIPOS>BOND
     1     1     4 1   
     2     1    15 1   
     3     1    16 1   
     4     1    17 1   
     5     2     3 1   
     6     2    12 2   
     7     2    13 1   
     8     3    11 1   
     9     3    18 1   
    10     3    19 1   
    11     4     6 1   
    12     5     7 ar  
    13     5    10 ar  
    14     5    27 1   
    15     6     7 ar  
    16     6     8 ar  
    17     7    20 1   
    18     8     9 ar  
    19     8    21 1   
    20     9    10 ar  
    21     9    13 1   
    22    10    22 1   
    23    13    23 1   
    24    14    24 1   
    25    14    25 1   
    26    14    26 1   
    27    14    27 1   
@<TRIPOS>SUBSTRUCTURE
     1 V2U         1 TEMP              0 ****  ****    0 ROOT
