@<TRIPOS>MOLECULE
V2U
   27    27     1     0     0
SMALL
abcg2


@<TRIPOS>ATOM
      1 C7          38.6390    29.0870    27.7290 c3         1 V2U       0.148900
      2 C8          44.5820    27.0820    26.5890 c          1 V2U       0.602100
      3 C9          45.6220    27.4860    27.6200 c3         1 V2U       0.034600
      4 O1          38.6130    28.3420    26.5110 os         1 V2U      -0.346600
      5 C1          40.8320    26.5040    24.3330 ca         1 V2U       0.197100
      6 C5          39.7770    27.8120    26.0520 ca         1 V2U       0.197100
      7 C6          39.6860    27.0810    24.8690 ca         1 V2U      -0.203000
      8 C4          41.0020    27.9670    26.6960 ca         1 V2U      -0.268000
      9 C3          42.1410    27.3780    26.1390 ca         1 V2U       0.044000
     10 C2          42.0740    26.6420    24.9570 ca         1 V2U      -0.268000
     11 CL          45.7530    26.1750    28.8650 cl         1 V2U      -0.247000
     12 O2          44.8820    26.3620    25.6450 o          1 V2U      -0.563100
     13 N           43.3450    27.5780    26.8390 ns         1 V2U      -0.140000
     14 C           41.7980    25.2100    22.5620 c3         1 V2U       0.148900
     15 H1          37.6140    29.4020    27.9060 h1         1 V2U       0.044367
     16 H2          38.9820    28.4660    28.5600 h1         1 V2U       0.044367
     17 H3          39.2830    29.9650    27.6380 h1         1 V2U       0.044367
     18 H4          46.5930    27.5670    27.1440 h1         1 V2U       0.087700
     19 H5          45.3740    28.4000    28.1520 h1         1 V2U       0.087700
     20 H6          38.7320    26.9640    24.3740 ha         1 V2U       0.145000
     21 H7          41.0900    28.5290    27.6130 ha         1 V2U       0.135000
     22 H8          42.9650    26.2020    24.5510 ha         1 V2U       0.135000
     23 H9          43.2610    28.1540    27.6640 hn         1 V2U       0.152000
     24 H10         41.4280    24.7240    21.6630 h1         1 V2U       0.044367
     25 H11         42.5380    25.9670    22.2920 h1         1 V2U       0.044367
     26 H12         42.2570    24.4680    23.2190 h1         1 V2U       0.044367
     27 O           40.6570    25.8070    23.1780 os         1 V2U      -0.346600
@<TRIPOS>BOND
     1     1     4 1   
     2     1    15 1   
     3     1    16 1   
     4     1    17 1   
     5     2     3 1   
     6     2    12 2   
     7     2    13 1   
     8     3    11 1   
     9     3    18 1   
    10     3    19 1   
    11     4     6 1   
    12     5     7 ar  
    13     5    10 ar  
    14     5    27 1   
    15     6     7 ar  
    16     6     8 ar  
    17     7    20 1   
    18     8     9 ar  
    19     8    21 1   
    20     9    10 ar  
    21     9    13 1   
    22    10    22 1   
    23    13    23 1   
    24    14    24 1   
    25    14    25 1   
    26    14    26 1   
    27    14    27 1   
@<TRIPOS>SUBSTRUCTURE
     1 V2U         1 TEMP              0 ****  ****    0 ROOT
