@<TRIPOS>MOLECULE
V2V
   57    58     1     0     0
SMALL
No Charge or Current Charge


@<TRIPOS>ATOM
      1 C01        -25.6310     9.7110    21.7880 cc         1 V2V      -0.476600
      2 C02        -24.9680     9.4050    20.6220 cd         1 V2V       0.047600
      3 C04        -27.1140     8.8350    19.6260 c          1 V2V       0.720400
      4 C07        -27.0240     9.5590    21.8120 cc         1 V2V       0.774500
      5 C09        -25.0510     8.6070    18.2590 c5         1 V2V       0.330700
      6 C10        -24.5020     9.9160    17.6070 c5         1 V2V       0.130300
      7 C11        -23.5700     9.2600    16.5490 c5         1 V2V       0.103300
      8 C12        -22.9760     8.0470    17.3640 c5         1 V2V       0.135300
      9 C14        -21.5150     8.2410    17.8600 c3         1 V2V       0.210600
     10 C24        -22.4220     7.1330    21.6370 c3         1 V2V       0.239600
     11 C25        -22.4800     5.5780    21.6950 c3         1 V2V       0.166300
     12 C26        -23.5770     5.0030    20.7230 c3         1 V2V       0.135300
     13 C27        -23.8450     3.4570    20.8310 c3         1 V2V       0.138300
     14 C28        -24.8090     3.0240    21.9730 c3         1 V2V       0.110600
     15 N03        -25.7140     8.9550    19.5370 n          1 V2V      -0.319000
     16 N06        -27.7450     9.1590    20.8270 nd         1 V2V      -0.823100
     17 N08        -27.6890     9.8540    22.9070 nv         1 V2V      -1.053200
     18 O05        -27.8080     8.4500    18.6990 o          1 V2V      -0.598000
     19 O13        -23.8680     7.8240    18.4930 os         1 V2V      -0.466000
     20 O15        -21.4150     9.4160    18.6830 os         1 V2V      -0.612400
     21 O17        -18.8760     9.3970    18.4410 o          1 V2V      -0.844500
     22 O18        -19.8680    11.1140    19.8660 o          1 V2V      -0.844500
     23 O19        -20.0560     8.6170    20.5150 os         1 V2V      -0.729800
     24 O21        -19.6780     9.5400    22.8440 o          1 V2V      -0.853500
     25 O22        -21.8740    10.0000    21.7690 o          1 V2V      -0.853500
     26 O23        -21.2430     7.6140    22.3020 os         1 V2V      -0.585400
     27 O29        -24.8780     1.5830    22.0200 oh         1 V2V      -0.746000
     28 O30        -22.6330     2.6950    20.9610 oh         1 V2V      -0.711000
     29 O31        -23.2120     5.3080    19.3560 oh         1 V2V      -0.694000
     30 O32        -22.7000     5.1520    23.0600 oh         1 V2V      -0.708000
     31 O33        -24.3490     8.8350    15.4090 oh         1 V2V      -0.719000
     32 O34        -25.4890    10.7310    16.9540 oh         1 V2V      -0.696000
     33 P16        -19.9920     9.7080    19.3830 p5         1 V2V       1.470800
     34 P20        -20.7120     9.0710    21.8720 p5         1 V2V       1.480800
     35 H1         -25.1090    10.0590    22.6710 ha         1 V2V       0.257000
     36 H2         -23.8930     9.4830    20.4560 h4         1 V2V       0.279000
     37 H3         -25.7480     8.0750    17.5980 h2         1 V2V       0.100700
     38 H4         -23.9150    10.5020    18.3290 h1         1 V2V       0.105700
     39 H5         -22.7780     9.9580    16.2370 h1         1 V2V       0.070700
     40 H6         -22.9900     7.1400    16.7450 h1         1 V2V       0.031700
     41 H8         -21.2100     7.3440    18.4160 h1         1 V2V       0.041200
     42 H9         -20.8620     8.3280    16.9810 h1         1 V2V       0.041200
     43 H10        -22.4190     7.4500    20.5880 h1         1 V2V       0.021200
     44 H11        -23.3240     7.5450    22.1070 h1         1 V2V       0.021200
     45 H12        -21.5060     5.2050    21.3450 h1         1 V2V       0.072700
     46 H13        -24.5250     5.5100    20.9550 h1         1 V2V       0.044700
     47 H14        -24.3460     3.1580    19.8990 h1         1 V2V       0.025700
     48 H15        -24.4720     3.4180    22.9390 h1         1 V2V       0.045200
     49 H16        -25.8020     3.4510    21.7740 h1         1 V2V       0.045200
     50 H17        -28.6810     9.9530    22.7430 hn         1 V2V       0.487500
     51 H18        -27.2700    10.5550    23.5030 hn         1 V2V       0.487500
     52 H22        -25.5720     1.3440    22.6800 ho         1 V2V       0.499000
     53 H23        -22.9600     1.8270    21.3040 ho         1 V2V       0.499000
     54 H24        -23.5310     6.2240    19.1440 ho         1 V2V       0.493000
     55 H25        -22.3720     4.2260    23.1110 ho         1 V2V       0.486000
     56 H26        -23.7250     8.4510    14.7490 ho         1 V2V       0.485000
     57 H27        -25.5420    10.3280    16.0510 ho         1 V2V       0.499000
@<TRIPOS>BOND
     1     1     2 2   
     2     1     4 1   
     3     1    35 1   
     4     2    15 1   
     5     2    36 1   
     6     3    15 1   
     7     3    16 1   
     8     3    18 2   
     9     4    16 2   
    10     4    17 1   
    11     5     6 1   
    12     5    15 1   
    13     5    19 1   
    14     5    37 1   
    15     6     7 1   
    16     6    32 1   
    17     6    38 1   
    18     7     8 1   
    19     7    31 1   
    20     7    39 1   
    21     8     9 1   
    22     8    19 1   
    23     8    40 1   
    24     9    20 1   
    25     9    41 1   
    26     9    42 1   
    27    10    11 1   
    28    10    26 1   
    29    10    43 1   
    30    10    44 1   
    31    11    12 1   
    32    11    30 1   
    33    11    45 1   
    34    12    13 1   
    35    12    29 1   
    36    12    46 1   
    37    13    14 1   
    38    13    28 1   
    39    13    47 1   
    40    14    27 1   
    41    14    48 1   
    42    14    49 1   
    43    17    50 1   
    44    17    51 1   
    45    20    33 1   
    46    21    33 1   
    47    22    33 1   
    48    23    33 1   
    49    23    34 1   
    50    24    34 1   
    51    25    34 1   
    52    26    34 1   
    53    27    52 1   
    54    28    53 1   
    55    29    54 1   
    56    30    55 1   
    57    31    56 1   
    58    32    57 1   
@<TRIPOS>SUBSTRUCTURE
     1 V2V         1 TEMP              0 ****  ****    0 ROOT
