@<TRIPOS>MOLECULE
V2V
   57    58     1     0     0
SMALL
abcg2


@<TRIPOS>ATOM
      1 C01        -25.4040     9.7300    21.5790 cc         1 V2V      -0.476600
      2 C02        -24.9360     9.4360    20.3510 cd         1 V2V       0.047600
      3 C04        -27.1670     9.1300    19.5160 c          1 V2V       0.720400
      4 C07        -26.8220     9.7110    21.7390 cc         1 V2V       0.774500
      5 C09        -25.2160     8.8120    18.0270 c5         1 V2V       0.330700
      6 C10        -24.5240     9.9770    17.3240 c5         1 V2V       0.130300
      7 C11        -23.5810     9.2330    16.3790 c5         1 V2V       0.103300
      8 C12        -23.1690     8.0290    17.2410 c5         1 V2V       0.135300
      9 C14        -21.8350     8.1770    17.9340 c3         1 V2V       0.210600
     10 C24        -22.4250     6.9090    21.7690 c3         1 V2V       0.239600
     11 C25        -22.2880     5.3990    21.7730 c3         1 V2V       0.166300
     12 C26        -23.2970     4.8070    20.7670 c3         1 V2V       0.135300
     13 C27        -23.6650     3.3410    21.0110 c3         1 V2V       0.138300
     14 C28        -24.8210     3.1810    21.9870 c3         1 V2V       0.110600
     15 N03        -25.7720     9.1400    19.3250 n          1 V2V      -0.319000
     16 N06        -27.6390     9.4220    20.7460 nd         1 V2V      -0.823100
     17 N08        -27.3500     9.9900    22.9310 nv         1 V2V      -1.053200
     18 O05        -27.9040     8.8630    18.5760 o          1 V2V      -0.598000
     19 O13        -24.2270     7.8310    18.1840 os         1 V2V      -0.466000
     20 O15        -21.7790     9.3900    18.6530 os         1 V2V      -0.612400
     21 O17        -19.2260     9.3950    18.4610 o          1 V2V      -0.844500
     22 O18        -20.5190    11.2830    19.7270 o          1 V2V      -0.844500
     23 O19        -20.3040     8.8770    20.6580 os         1 V2V      -0.729800
     24 O21        -19.8690     9.4100    23.1150 o          1 V2V      -0.853500
     25 O22        -22.2160     9.8860    22.0770 o          1 V2V      -0.853500
     26 O23        -21.3340     7.4960    22.4460 os         1 V2V      -0.585400
     27 O29        -25.0900     1.7980    22.0930 oh         1 V2V      -0.746000
     28 O30        -22.5160     2.6340    21.4340 oh         1 V2V      -0.711000
     29 O31        -22.6890     4.9720    19.5000 oh         1 V2V      -0.694000
     30 O32        -22.4630     4.9530    23.0950 oh         1 V2V      -0.708000
     31 O33        -24.3180     8.8500    15.2450 oh         1 V2V      -0.719000
     32 O34        -25.4820    10.8000    16.7320 oh         1 V2V      -0.696000
     33 P16        -20.3480     9.8530    19.3370 p5         1 V2V       1.470800
     34 P20        -20.9620     9.0690    22.1580 p5         1 V2V       1.480800
     35 H1         -24.7240     9.9530    22.3860 ha         1 V2V       0.257000
     36 H2         -23.8730     9.4210    20.1510 h4         1 V2V       0.279000
     37 H3         -26.0470     8.4510    17.4170 h2         1 V2V       0.100700
     38 H4         -23.9080    10.5250    18.0470 h1         1 V2V       0.105700
     39 H5         -22.7090     9.8390    16.1000 h1         1 V2V       0.070700
     40 H6         -23.0920     7.1340    16.6120 h1         1 V2V       0.031700
     41 H8         -21.6780     7.3140    18.5910 h1         1 V2V       0.041200
     42 H9         -21.0610     8.1390    17.1610 h1         1 V2V       0.041200
     43 H10        -22.4880     7.2470    20.7310 h1         1 V2V       0.021200
     44 H11        -23.3720     7.1810    22.2500 h1         1 V2V       0.021200
     45 H12        -21.2850     5.1410    21.4050 h1         1 V2V       0.072700
     46 H13        -24.2320     5.3870    20.8150 h1         1 V2V       0.044700
     47 H14        -24.0160     2.9410    20.0460 h1         1 V2V       0.025700
     48 H15        -24.5700     3.6180    22.9590 h1         1 V2V       0.045200
     49 H16        -25.6850     3.7330    21.5960 h1         1 V2V       0.045200
     50 H17        -28.3480     9.9820    23.0590 hn         1 V2V       0.487500
     51 H18        -26.7720    10.2190    23.7210 hn         1 V2V       0.487500
     52 H22        -25.6180     1.6480    22.8820 ho         1 V2V       0.499000
     53 H23        -22.7960     1.7480    21.6900 ho         1 V2V       0.499000
     54 H24        -23.3750     4.9460    18.8260 ho         1 V2V       0.493000
     55 H25        -22.2260     4.0180    23.1120 ho         1 V2V       0.486000
     56 H26        -23.7410     8.3410    14.6670 ho         1 V2V       0.485000
     57 H27        -25.0600    11.6180    16.4560 ho         1 V2V       0.499000
@<TRIPOS>BOND
     1     1     2 2   
     2     1     4 1   
     3     1    35 1   
     4     2    15 1   
     5     2    36 1   
     6     3    15 1   
     7     3    16 1   
     8     3    18 2   
     9     4    16 2   
    10     4    17 1   
    11     5     6 1   
    12     5    15 1   
    13     5    19 1   
    14     5    37 1   
    15     6     7 1   
    16     6    32 1   
    17     6    38 1   
    18     7     8 1   
    19     7    31 1   
    20     7    39 1   
    21     8     9 1   
    22     8    19 1   
    23     8    40 1   
    24     9    20 1   
    25     9    41 1   
    26     9    42 1   
    27    10    11 1   
    28    10    26 1   
    29    10    43 1   
    30    10    44 1   
    31    11    12 1   
    32    11    30 1   
    33    11    45 1   
    34    12    13 1   
    35    12    29 1   
    36    12    46 1   
    37    13    14 1   
    38    13    28 1   
    39    13    47 1   
    40    14    27 1   
    41    14    48 1   
    42    14    49 1   
    43    17    50 1   
    44    17    51 1   
    45    20    33 1   
    46    21    33 1   
    47    22    33 1   
    48    23    33 1   
    49    23    34 1   
    50    24    34 1   
    51    25    34 1   
    52    26    34 1   
    53    27    52 1   
    54    28    53 1   
    55    29    54 1   
    56    30    55 1   
    57    31    56 1   
    58    32    57 1   
@<TRIPOS>SUBSTRUCTURE
     1 V2V         1 TEMP              0 ****  ****    0 ROOT
