@<TRIPOS>MOLECULE
V2W
   35    36     1     0     0
SMALL
No Charge or Current Charge


@<TRIPOS>ATOM
      1 C01        -31.0460   -14.9140    -2.7300 c3         1 V2W       0.147900
      2 C03        -30.0070   -16.9180    -1.7320 ca         1 V2W       0.148100
      3 C04        -30.0370   -18.3130    -1.5750 ca         1 V2W      -0.175500
      4 C05        -29.0640   -18.9650    -0.7990 ca         1 V2W      -0.058500
      5 C06        -28.0480   -18.2220    -0.1700 ca         1 V2W      -0.159300
      6 C07        -28.0130   -16.8230    -0.3260 ca         1 V2W      -0.058500
      7 C08        -28.9870   -16.1710    -1.1030 ca         1 V2W      -0.175500
      8 C09        -26.9920   -18.9280     0.6670 c3         1 V2W       0.151300
      9 C11        -25.7260   -20.6570    -0.6580 c          1 V2W       0.610700
     10 C12        -24.5140   -20.9100    -1.5370 ca         1 V2W      -0.122600
     11 C13        -24.3010   -22.2020    -2.0700 ca         1 V2W      -0.089000
     12 C14        -23.1910   -22.4730    -2.8880 ca         1 V2W      -0.069000
     13 C15        -22.2660   -21.4580    -3.1950 ca         1 V2W      -0.183600
     14 C16        -22.4690   -20.1650    -2.6700 ca         1 V2W      -0.069000
     15 C17        -23.5790   -19.8930    -1.8510 ca         1 V2W      -0.089000
     16 C18        -21.0800   -21.7630    -4.0730 c          1 V2W       0.582500
     17 N10        -25.8770   -19.3780    -0.1660 ns         1 V2W      -0.498900
     18 O02        -30.9890   -16.3340    -2.5060 os         1 V2W      -0.339100
     19 O19        -26.5330   -21.5390    -0.3940 o          1 V2W      -0.599100
     20 H1         -31.9010   -14.6640    -3.3700 h1         1 V2W       0.041367
     21 H2         -31.1630   -14.3740    -1.7810 h1         1 V2W       0.041367
     22 H3         -30.1340   -14.5600    -3.2270 h1         1 V2W       0.041367
     23 H4         -30.8200   -18.8920    -2.0590 ha         1 V2W       0.123000
     24 H5         -29.0980   -20.0470    -0.6890 ha         1 V2W       0.117000
     25 H6         -27.2300   -16.2390     0.1530 ha         1 V2W       0.117000
     26 H7         -28.9340   -15.0910    -1.2050 ha         1 V2W       0.123000
     27 H8         -26.6040   -18.2410     1.4310 h1         1 V2W       0.064700
     28 H9         -27.4390   -19.7820     1.1920 h1         1 V2W       0.064700
     29 H10        -24.9990   -23.0070    -1.8500 ha         1 V2W       0.128500
     30 H11        -23.0530   -23.4790    -3.2830 ha         1 V2W       0.127500
     31 H12        -21.7660   -19.3650    -2.8950 ha         1 V2W       0.127500
     32 H13        -23.6950   -18.8810    -1.4700 ha         1 V2W       0.128500
     33 H14        -21.0040   -22.8100    -4.4400 h4         1 V2W      -0.007800
     34 H17        -25.1770   -18.6990    -0.4300 hn         1 V2W       0.316500
     35 O1         -20.2350   -20.9280    -4.3820 o          1 V2W      -0.511100
@<TRIPOS>BOND
     1     1    18 1   
     2     1    20 1   
     3     1    21 1   
     4     1    22 1   
     5     2     3 ar  
     6     2     7 ar  
     7     2    18 1   
     8     3     4 ar  
     9     3    23 1   
    10     4     5 ar  
    11     4    24 1   
    12     5     6 ar  
    13     5     8 1   
    14     6     7 ar  
    15     6    25 1   
    16     7    26 1   
    17     8    17 1   
    18     8    27 1   
    19     8    28 1   
    20     9    10 1   
    21     9    17 1   
    22     9    19 2   
    23    10    11 ar  
    24    10    15 ar  
    25    11    12 ar  
    26    11    29 1   
    27    12    13 ar  
    28    12    30 1   
    29    13    14 ar  
    30    13    16 1   
    31    14    15 ar  
    32    14    31 1   
    33    15    32 1   
    34    16    33 1   
    35    16    35 2   
    36    17    34 1   
@<TRIPOS>SUBSTRUCTURE
     1 V2W         1 TEMP              0 ****  ****    0 ROOT
