@<TRIPOS>MOLECULE
V2W
   35    36     1     0     0
SMALL
abcg2


@<TRIPOS>ATOM
      1 C01        -31.3100   -15.0620    -2.5410 c3         1 V2W       0.147900
      2 C03        -30.0060   -16.9090    -1.8260 ca         1 V2W       0.148100
      3 C04        -29.7550   -18.2830    -1.9080 ca         1 V2W      -0.175500
      4 C05        -28.7450   -18.8530    -1.1600 ca         1 V2W      -0.058500
      5 C06        -27.9530   -18.0800    -0.3090 ca         1 V2W      -0.159300
      6 C07        -28.2100   -16.7200    -0.2370 ca         1 V2W      -0.058500
      7 C08        -29.2260   -16.1270    -0.9810 ca         1 V2W      -0.175500
      8 C09        -26.8450   -18.7080     0.4950 c3         1 V2W       0.151300
      9 C11        -25.5450   -20.5380    -0.5270 c          1 V2W       0.610700
     10 C12        -24.4000   -20.8660    -1.4400 ca         1 V2W      -0.122600
     11 C13        -24.4590   -22.0580    -2.1550 ca         1 V2W      -0.089000
     12 C14        -23.4240   -22.4090    -3.0040 ca         1 V2W      -0.069000
     13 C15        -22.3100   -21.5850    -3.1320 ca         1 V2W      -0.183600
     14 C16        -22.2380   -20.4020    -2.3990 ca         1 V2W      -0.069000
     15 C17        -23.2770   -20.0450    -1.5610 ca         1 V2W      -0.089000
     16 C18        -21.2260   -21.9880    -4.0450 c          1 V2W       0.582500
     17 N10        -25.7840   -19.2300    -0.3420 ns         1 V2W      -0.498900
     18 O02        -31.0090   -16.4420    -2.5910 os         1 V2W      -0.339100
     19 O19        -26.1980   -21.4320    -0.0070 o          1 V2W      -0.599100
     20 H1         -32.1410   -14.9010    -3.2230 h1         1 V2W       0.041367
     21 H2         -31.6110   -14.7450    -1.5390 h1         1 V2W       0.041367
     22 H3         -30.4660   -14.4470    -2.8650 h1         1 V2W       0.041367
     23 H4         -30.3630   -18.8960    -2.5630 ha         1 V2W       0.123000
     24 H5         -28.5730   -19.9200    -1.2370 ha         1 V2W       0.117000
     25 H6         -27.6100   -16.0950     0.4140 ha         1 V2W       0.117000
     26 H7         -29.3850   -15.0610    -0.8890 ha         1 V2W       0.123000
     27 H8         -26.4190   -17.9710     1.1800 h1         1 V2W       0.064700
     28 H9         -27.2250   -19.5270     1.1030 h1         1 V2W       0.064700
     29 H10        -25.3190   -22.7070    -2.0550 ha         1 V2W       0.128500
     30 H11        -23.4790   -23.3310    -3.5710 ha         1 V2W       0.127500
     31 H12        -21.3670   -19.7630    -2.4800 ha         1 V2W       0.127500
     32 H13        -23.1950   -19.1320    -0.9840 ha         1 V2W       0.128500
     33 H14        -21.3970   -22.9470    -4.5650 h4         1 V2W      -0.007800
     34 H17        -25.2810   -18.5580    -0.9000 hn         1 V2W       0.316500
     35 O1         -20.2210   -21.3460    -4.2350 o          1 V2W      -0.511100
@<TRIPOS>BOND
     1     1    18 1   
     2     1    20 1   
     3     1    21 1   
     4     1    22 1   
     5     2     3 ar  
     6     2     7 ar  
     7     2    18 1   
     8     3     4 ar  
     9     3    23 1   
    10     4     5 ar  
    11     4    24 1   
    12     5     6 ar  
    13     5     8 1   
    14     6     7 ar  
    15     6    25 1   
    16     7    26 1   
    17     8    17 1   
    18     8    27 1   
    19     8    28 1   
    20     9    10 1   
    21     9    17 1   
    22     9    19 2   
    23    10    11 ar  
    24    10    15 ar  
    25    11    12 ar  
    26    11    29 1   
    27    12    13 ar  
    28    12    30 1   
    29    13    14 ar  
    30    13    16 1   
    31    14    15 ar  
    32    14    31 1   
    33    15    32 1   
    34    16    33 1   
    35    16    35 2   
    36    17    34 1   
@<TRIPOS>SUBSTRUCTURE
     1 V2W         1 TEMP              0 ****  ****    0 ROOT
