@<TRIPOS>MOLECULE
V2X
   33    34     1     0     0
SMALL
abcg2


@<TRIPOS>ATOM
      1 C10          0.5410    -5.5900     6.2510 c          1 V2X       0.601100
      2 C11          1.0960    -5.3770     7.6350 c3         1 V2X      -0.173100
      3 C12         -1.6780    -5.9060    -0.4290 ca         1 V2X      -0.110000
      4 C1          -2.1820    -6.8690    -1.3040 ca         1 V2X      -0.076300
      5 C2          -1.3450    -7.9140    -1.7000 ca         1 V2X      -0.107000
      6 C3          -0.0410    -7.9910    -1.2240 ca         1 V2X      -0.105000
      7 C4           0.4440    -7.0270    -0.3480 ca         1 V2X      -0.098000
      8 C5          -0.3720    -5.9690     0.0600 ca         1 V2X      -0.053300
      9 C6           0.1800    -4.9530     0.9920 cx         1 V2X      -0.040400
     10 C7          -0.2730    -3.5270     1.0010 cx         1 V2X      -0.083400
     11 O1           0.7780    -6.5870     5.5830 o          1 V2X      -0.581100
     12 N1          -0.2600    -4.5820     5.8000 ns         1 V2X      -0.378500
     13 N           -0.7690    -4.5860     4.5250 ns         1 V2X      -0.369500
     14 C9           0.0040    -4.2370     3.4530 c          1 V2X       0.636100
     15 O            1.1410    -3.8010     3.5770 o          1 V2X      -0.586100
     16 C8          -0.6710    -4.4200     2.1450 cx         1 V2X      -0.237700
     17 H1           2.1810    -5.2830     7.5590 hc         1 V2X       0.065033
     18 H2           0.6950    -4.4890     8.1220 hc         1 V2X       0.065033
     19 H3           0.8770    -6.2560     8.2410 hc         1 V2X       0.065033
     20 H4          -2.3280    -5.0910    -0.1310 ha         1 V2X       0.105000
     21 H5          -1.7180    -8.6670    -2.3840 ha         1 V2X       0.112000
     22 H6           0.6010    -8.8050    -1.5380 ha         1 V2X       0.115000
     23 H7           1.4610    -7.0890     0.0190 ha         1 V2X       0.118000
     24 H8           1.2180    -5.1070     1.2560 hc         1 V2X       0.103700
     25 H9           0.4730    -2.7740     1.2130 hc         1 V2X       0.085700
     26 H10         -1.0570    -3.2370     0.3150 hc         1 V2X       0.085700
     27 H11         -0.3720    -3.7340     6.3340 hn         1 V2X       0.336500
     28 H12         -1.6540    -5.0520     4.3900 hn         1 V2X       0.336500
     29 H13         -1.6970    -4.7620     2.1740 hc         1 V2X       0.090700
     30 H14         -4.2990    -7.1440    -1.0260 hc         1 V2X       0.042033
     31 H15         -3.8830    -5.7580    -2.0270 hc         1 V2X       0.042033
     32 H16         -3.7510    -7.3980    -2.6820 hc         1 V2X       0.042033
     33 C           -3.6040    -6.7870    -1.7920 c3         1 V2X      -0.046800
@<TRIPOS>BOND
     1     1     2 1   
     2     1    11 2   
     3     1    12 1   
     4     2    17 1   
     5     2    18 1   
     6     2    19 1   
     7     3     4 ar  
     8     3     8 ar  
     9     3    20 1   
    10     4     5 ar  
    11     4    33 1   
    12     5     6 ar  
    13     5    21 1   
    14     6     7 ar  
    15     6    22 1   
    16     7     8 ar  
    17     7    23 1   
    18     8     9 1   
    19     9    10 1   
    20     9    16 1   
    21     9    24 1   
    22    10    16 1   
    23    10    25 1   
    24    10    26 1   
    25    12    13 1   
    26    12    27 1   
    27    13    14 1   
    28    13    28 1   
    29    14    15 2   
    30    14    16 1   
    31    16    29 1   
    32    30    33 1   
    33    31    33 1   
    34    32    33 1   
@<TRIPOS>SUBSTRUCTURE
     1 V2X         1 TEMP              0 ****  ****    0 ROOT
