@<TRIPOS>MOLECULE
V2X
   33    34     1     0     0
SMALL
No Charge or Current Charge


@<TRIPOS>ATOM
      1 C10          1.1510    -5.2510     6.0840 c          1 V2X       0.601100
      2 C11          1.3830    -5.1750     7.5880 c3         1 V2X      -0.173100
      3 C12         -1.6870    -5.7930    -0.4990 ca         1 V2X      -0.110000
      4 C1          -2.2570    -6.7160    -1.3960 ca         1 V2X      -0.076300
      5 C2          -1.7120    -8.0090    -1.5010 ca         1 V2X      -0.107000
      6 C3          -0.6050    -8.3720    -0.7180 ca         1 V2X      -0.105000
      7 C4          -0.0390    -7.4470     0.1740 ca         1 V2X      -0.098000
      8 C5          -0.5720    -6.1480     0.2940 ca         1 V2X      -0.053300
      9 C6           0.0540    -5.1740     1.2630 cx         1 V2X      -0.040400
     10 C7           0.1360    -3.6880     0.9860 cx         1 V2X      -0.083400
     11 O1           2.0680    -5.3890     5.2850 o          1 V2X      -0.581100
     12 N1          -0.1750    -5.1650     5.6920 ns         1 V2X      -0.378500
     13 N           -0.5970    -5.0880     4.3260 ns         1 V2X      -0.369500
     14 C9          -0.4070    -3.9800     3.5190 c          1 V2X       0.636100
     15 O            0.0110    -2.9090     3.9390 o          1 V2X      -0.586100
     16 C8          -0.7820    -4.2020     2.0760 cx         1 V2X      -0.237700
     17 H1           0.9410    -4.2480     7.9710 hc         1 V2X       0.065033
     18 H2           0.7790    -5.9440     8.0830 hc         1 V2X       0.065033
     19 H3           2.4430    -5.2580     7.8560 hc         1 V2X       0.065033
     20 H4          -2.1180    -4.7990    -0.4220 ha         1 V2X       0.105000
     21 H5          -2.1470    -8.7320    -2.1880 ha         1 V2X       0.112000
     22 H6          -0.1860    -9.3730    -0.8010 ha         1 V2X       0.115000
     23 H7           0.8190    -7.7440     0.7740 ha         1 V2X       0.118000
     24 H8           0.9230    -5.6000     1.7630 hc         1 V2X       0.103700
     25 H9           1.0480    -3.1730     1.2810 hc         1 V2X       0.085700
     26 H10         -0.3160    -3.3080     0.0740 hc         1 V2X       0.085700
     27 H11         -0.8790    -5.0040     6.4080 hn         1 V2X       0.336500
     28 H12         -0.9120    -5.9480     3.8840 hn         1 V2X       0.336500
     29 H13         -1.8490    -4.1650     1.8770 hc         1 V2X       0.090700
     30 H14         -4.3930    -6.4890    -1.6910 hc         1 V2X       0.042033
     31 H15         -3.4200    -5.2590    -2.5150 hc         1 V2X       0.042033
     32 H16         -3.5060    -6.8990    -3.1690 hc         1 V2X       0.042033
     33 C           -3.4590    -6.3200    -2.2390 c3         1 V2X      -0.046800
@<TRIPOS>BOND
     1     1     2 1   
     2     1    11 2   
     3     1    12 1   
     4     2    17 1   
     5     2    18 1   
     6     2    19 1   
     7     3     4 ar  
     8     3     8 ar  
     9     3    20 1   
    10     4     5 ar  
    11     4    33 1   
    12     5     6 ar  
    13     5    21 1   
    14     6     7 ar  
    15     6    22 1   
    16     7     8 ar  
    17     7    23 1   
    18     8     9 1   
    19     9    10 1   
    20     9    16 1   
    21     9    24 1   
    22    10    16 1   
    23    10    25 1   
    24    10    26 1   
    25    12    13 1   
    26    12    27 1   
    27    13    14 1   
    28    13    28 1   
    29    14    15 2   
    30    14    16 1   
    31    16    29 1   
    32    30    33 1   
    33    31    33 1   
    34    32    33 1   
@<TRIPOS>SUBSTRUCTURE
     1 V2X         1 TEMP              0 ****  ****    0 ROOT
