@<TRIPOS>MOLECULE
V2Z
   29    30     1     0     0
SMALL
abcg2


@<TRIPOS>ATOM
      1 N10         -0.5370    -0.1850     0.0190 nc         1 V2Z      -0.533300
      2 C11         -1.7580     0.2260     0.0130 cd         1 V2Z       0.370300
      3 C12         -2.1040     1.6530     0.0070 c          1 V2Z       0.418700
      4 C14         -3.6620    -3.1510     0.0040 c3         1 V2Z      -0.092100
      5 C15         -2.4650    -2.2100    -0.0140 c3         1 V2Z      -0.067400
      6 C16         -2.8900    -0.7510     0.0130 c3         1 V2Z      -0.103700
      7 C7           0.5150     0.6840     0.0200 cc         1 V2Z       0.081400
      8 C6           0.2740     2.0210     0.0040 cd         1 V2Z      -0.070400
      9 C8           1.8610     0.0910     0.0310 ca         1 V2Z      -0.072800
     10 C9           2.0310    -1.2910    -0.0510 ca         1 V2Z      -0.046000
     11 C4           3.0230     0.8610     0.1270 ca         1 V2Z       0.335900
     12 N3           4.2480     0.3590     0.1390 nb         1 V2Z      -0.667000
     13 C2           4.3890    -0.9600     0.0570 ca         1 V2Z       0.335900
     14 C1           3.3090    -1.8230    -0.0380 ca         1 V2Z      -0.165000
     15 O6          -3.2440     2.0940     0.0070 o          1 V2Z      -0.535000
     16 N7          -1.0030     2.4650    -0.0020 ns         1 V2Z      -0.355100
     17 H161        -3.5170    -0.5580     0.8910 hc         1 V2Z       0.065700
     18 H162        -3.5400    -0.5340    -0.8430 hc         1 V2Z       0.065700
     19 H7          -1.1650     3.4650    -0.0090 hn         1 V2Z       0.333500
     20 H141        -4.3100    -2.9910    -0.8600 hc         1 V2Z       0.032700
     21 H142        -3.3410    -4.1920    -0.0150 hc         1 V2Z       0.032700
     22 H143        -4.2680    -3.0100     0.9000 hc         1 V2Z       0.032700
     23 H151        -1.8170    -2.4210     0.8390 hc         1 V2Z       0.047700
     24 H152        -1.8610    -2.3990    -0.9040 hc         1 V2Z       0.047700
     25 H6           1.0350     2.7860    -0.0060 h4         1 V2Z       0.210000
     26 H9           1.1680    -1.9390    -0.1250 ha         1 V2Z       0.141000
     27 H4           2.9650     1.9410     0.2040 h4         1 V2Z       0.008100
     28 H1           3.4650    -2.8910    -0.1020 ha         1 V2Z       0.125000
     29 H2           5.4030    -1.3430     0.0690 h4         1 V2Z       0.020100
@<TRIPOS>BOND
     1     1     2 2   
     2     1     7 1   
     3     2     3 1   
     4     2     6 1   
     5     3    15 2   
     6     3    16 1   
     7     4     5 1   
     8     4    20 1   
     9     4    21 1   
    10     4    22 1   
    11     5     6 1   
    12     5    23 1   
    13     5    24 1   
    14     6    17 1   
    15     6    18 1   
    16     7     8 2   
    17     7     9 1   
    18     8    16 1   
    19     8    25 1   
    20     9    10 ar  
    21     9    11 ar  
    22    10    14 ar  
    23    10    26 1   
    24    11    12 ar  
    25    11    27 1   
    26    12    13 ar  
    27    13    14 ar  
    28    13    29 1   
    29    14    28 1   
    30    16    19 1   
@<TRIPOS>SUBSTRUCTURE
     1 V2Z         1 TEMP              0 ****  ****    0 ROOT
