@<TRIPOS>MOLECULE
V2Z
   29    30     1     0     0
SMALL
No Charge or Current Charge


@<TRIPOS>ATOM
      1 N10         -0.3270    -0.4540     0.4040 nc         1 V2Z      -0.533300
      2 C11         -1.6010    -0.0580     0.2330 cd         1 V2Z       0.370300
      3 C12         -2.0290     1.2670    -0.3520 c          1 V2Z       0.418700
      4 C14         -4.2960    -2.8950    -0.0880 c3         1 V2Z      -0.092100
      5 C15         -3.1910    -1.9080    -0.5120 c3         1 V2Z      -0.067400
      6 C16         -2.6890    -1.0240     0.6530 c3         1 V2Z      -0.103700
      7 C7           0.6530     0.4470     0.0130 cc         1 V2Z       0.081400
      8 C6           0.3550     1.6820    -0.5500 cd         1 V2Z      -0.070400
      9 C8           2.0700     0.0820     0.1490 ca         1 V2Z      -0.072800
     10 C9           2.4710    -1.2710     0.1260 ca         1 V2Z      -0.046000
     11 C4           3.0670     1.0540     0.4030 ca         1 V2Z       0.335900
     12 N3           4.3780     0.7600     0.5800 nb         1 V2Z      -0.667000
     13 C2           4.7470    -0.5390     0.5250 ca         1 V2Z       0.335900
     14 C1           3.8300    -1.5790     0.3070 ca         1 V2Z      -0.165000
     15 O6          -3.1830     1.6460    -0.5180 o          1 V2Z      -0.535000
     16 N7          -0.9660     2.0570    -0.7100 ns         1 V2Z      -0.355100
     17 H161        -2.3210    -1.6710     1.4580 hc         1 V2Z       0.065700
     18 H162        -3.5360    -0.4710     1.0780 hc         1 V2Z       0.065700
     19 H7          -1.2070     2.9560    -1.1160 hn         1 V2Z       0.333500
     20 H141        -5.1700    -2.3580     0.3000 hc         1 V2Z       0.032700
     21 H142        -4.6180    -3.4990    -0.9450 hc         1 V2Z       0.032700
     22 H143        -3.9320    -3.5750     0.6920 hc         1 V2Z       0.032700
     23 H151        -2.3480    -2.4730    -0.9280 hc         1 V2Z       0.047700
     24 H152        -3.5750    -1.2690    -1.3170 hc         1 V2Z       0.047700
     25 H6           1.0820     2.4090    -0.9040 h4         1 V2Z       0.210000
     26 H9           1.7480    -2.0670    -0.0390 ha         1 V2Z       0.141000
     27 H4           2.8140     2.1100     0.4820 h4         1 V2Z       0.008100
     28 H1           4.1730    -2.6100     0.2830 ha         1 V2Z       0.125000
     29 H2           5.8050    -0.7520     0.6690 h4         1 V2Z       0.020100
@<TRIPOS>BOND
     1     1     2 2   
     2     1     7 1   
     3     2     3 1   
     4     2     6 1   
     5     3    15 2   
     6     3    16 1   
     7     4     5 1   
     8     4    20 1   
     9     4    21 1   
    10     4    22 1   
    11     5     6 1   
    12     5    23 1   
    13     5    24 1   
    14     6    17 1   
    15     6    18 1   
    16     7     8 2   
    17     7     9 1   
    18     8    16 1   
    19     8    25 1   
    20     9    10 ar  
    21     9    11 ar  
    22    10    14 ar  
    23    10    26 1   
    24    11    12 ar  
    25    11    27 1   
    26    12    13 ar  
    27    13    14 ar  
    28    13    29 1   
    29    14    28 1   
    30    16    19 1   
@<TRIPOS>SUBSTRUCTURE
     1 V2Z         1 TEMP              0 ****  ****    0 ROOT
