@<TRIPOS>MOLECULE
V30
   35    36     1     0     0
SMALL
bcc


@<TRIPOS>ATOM
      1 N1I          0.6280     0.2620    -0.0670 nc         1 V30      -0.634100
      2 N1J         -4.4670     0.5520    -0.5820 ns         1 V30      -0.555900
      3 N1K          1.2950    -1.9020     0.4870 ns         1 V30      -0.477400
      4 CAA          5.2690     2.6150    -0.5410 c3         1 V30      -0.017800
      5 CAB          5.5800    -0.4170     0.2190 c3         1 V30      -0.031800
      6 OAC         -4.0450    -1.4960     0.2870 o          1 V30      -0.597100
      7 OAD          3.4440    -2.5860     0.7090 o          1 V30      -0.608500
      8 OAE         -6.3120     2.2440     0.8560 oh         1 V30      -0.605800
      9 CAF         -6.5840     0.8760     0.6610 c3         1 V30       0.111400
     10 CAG         -5.9090     0.4270    -0.6190 c3         1 V30       0.102000
     11 CAH         -2.1910    -0.0380    -0.0940 c3         1 V30      -0.106300
     12 SAL         -1.2960    -1.5480     0.3350 ss         1 V30      -0.103300
     13 SAM          2.5240     2.1230    -0.4930 ss         1 V30      -0.050800
     14 CAN         -3.6620    -0.4040    -0.1080 c          1 V30       0.676100
     15 CAO          4.1800     1.6130    -0.3350 cc         1 V30      -0.074400
     16 CAP          4.2850     0.2970     0.0000 cd         1 V30      -0.023300
     17 CAQ          0.3470    -0.9630     0.2300 cd         1 V30       0.498800
     18 CAR          2.6710    -1.6780     0.4620 c          1 V30       0.742100
     19 CAS          1.9470     0.5520    -0.1100 cc         1 V30       0.226300
     20 CAT          2.9950    -0.3160     0.1270 cd         1 V30      -0.241600
     21 HN1J        -4.0660     1.4360    -0.8500 hn         1 V30       0.326500
     22 HN1K         1.0080    -2.8460     0.7170 hn         1 V30       0.339500
     23 HAA          4.9280     3.4660    -1.1280 hc         1 V30       0.046700
     24 HAAA         5.6410     3.0010     0.4100 hc         1 V30       0.046700
     25 HAAB         6.1120     2.1760    -1.0720 hc         1 V30       0.046700
     26 HAB          5.6330    -0.8390     1.2220 hc         1 V30       0.051033
     27 HABA         5.7030    -1.2430    -0.4820 hc         1 V30       0.051033
     28 HABB         6.4280     0.2550     0.0970 hc         1 V30       0.051033
     29 HOAE        -6.6700     2.5050     1.7090 ho         1 V30       0.409000
     30 HAF         -6.2210     0.2650     1.4960 h1         1 V30       0.033700
     31 HAFA        -7.6590     0.6800     0.5630 h1         1 V30       0.033700
     32 HAG         -6.2730     1.0160    -1.4620 h1         1 V30       0.065700
     33 HAGA        -6.1740    -0.6110    -0.8160 h1         1 V30       0.065700
     34 HAH         -1.9980     0.7370     0.6500 h1         1 V30       0.101200
     35 HAHA        -1.8610     0.3350    -1.0630 h1         1 V30       0.101200
@<TRIPOS>BOND
     1     1    17 2   
     2     1    19 1   
     3     2    10 1   
     4     2    14 1   
     5     2    21 1   
     6     3    17 1   
     7     3    18 1   
     8     3    22 1   
     9     4    15 1   
    10     4    23 1   
    11     4    24 1   
    12     4    25 1   
    13     5    16 1   
    14     5    26 1   
    15     5    27 1   
    16     5    28 1   
    17     6    14 2   
    18     7    18 2   
    19     8     9 1   
    20     8    29 1   
    21     9    10 1   
    22     9    30 1   
    23     9    31 1   
    24    10    32 1   
    25    10    33 1   
    26    11    12 1   
    27    11    14 1   
    28    11    34 1   
    29    11    35 1   
    30    12    17 1   
    31    13    15 1   
    32    13    19 1   
    33    15    16 2   
    34    16    20 1   
    35    18    20 1   
    36    19    20 2   
@<TRIPOS>SUBSTRUCTURE
     1 V30         1 TEMP              0 ****  ****    0 ROOT
