@<TRIPOS>MOLECULE
V30
   35    36     1     0     0
SMALL
No Charge or Current Charge


@<TRIPOS>ATOM
      1 N1I          0.6370     0.1380    -0.1410 nc         1 V30      -0.634100
      2 N1J         -4.5100     0.6460    -0.6660 ns         1 V30      -0.488900
      3 N1K          1.4090    -1.9640     0.6550 ns         1 V30      -0.410400
      4 CAA          5.3120     2.6120    -0.7050 c3         1 V30      -0.017800
      5 CAB          5.5970    -0.3460     0.3620 c3         1 V30      -0.031800
      6 OAC         -4.2820    -1.4850     0.0980 o          1 V30      -0.597100
      7 OAD          3.5720    -2.4850     0.9840 o          1 V30      -0.533000
      8 OAE         -6.2030     2.0640     1.3100 oh         1 V30      -0.668000
      9 CAF         -6.6300     0.8400     0.6890 c3         1 V30       0.134600
     10 CAG         -5.9800     0.6770    -0.7080 c3         1 V30       0.102000
     11 CAH         -2.2500    -0.1810    -0.2200 c3         1 V30      -0.058400
     12 SAL         -1.2590    -1.6450     0.3640 ss         1 V30      -0.151200
     13 SAM          2.5230     2.1130    -0.7150 ss         1 V30       0.239000
     14 CAN         -3.7620    -0.4280    -0.2350 c          1 V30       0.609100
     15 CAO          4.1950     1.6360    -0.4340 cc         1 V30      -0.219300
     16 CAP          4.2900     0.3400     0.0320 cd         1 V30      -0.023300
     17 CAQ          0.4240    -1.1020     0.2840 cd         1 V30       0.498800
     18 CAR          2.7320    -1.6690     0.6390 c          1 V30       0.599600
     19 CAS          1.9610     0.5310    -0.1920 cc         1 V30       0.081400
     20 CAT          3.0050    -0.2910     0.1690 cd         1 V30      -0.241600
     21 HN1J        -4.0050     1.4920    -0.9040 hn         1 V30       0.326500
     22 HN1K         1.1700    -2.8920     0.9680 hn         1 V30       0.339500
     23 HAA          4.9260     3.5710    -1.0710 hc         1 V30       0.046700
     24 HAAA         5.8880     2.8110     0.2070 hc         1 V30       0.046700
     25 HAAB         6.0000     2.2190    -1.4630 hc         1 V30       0.046700
     26 HAB          5.6240    -0.6510     1.4140 hc         1 V30       0.051033
     27 HABA         5.7360    -1.2420    -0.2540 hc         1 V30       0.051033
     28 HABB         6.4630     0.3030     0.1900 hc         1 V30       0.051033
     29 HOAE        -6.6390     2.1080     2.1910 ho         1 V30       0.448000
     30 HAF         -6.3580    -0.0210     1.3140 h1         1 V30       0.033700
     31 HAFA        -7.7220     0.8330     0.5720 h1         1 V30       0.033700
     32 HAG         -6.2970     1.5090    -1.3520 h1         1 V30       0.065700
     33 HAGA        -6.3430    -0.2520    -1.1670 h1         1 V30       0.065700
     34 HAH         -2.0540     0.6740     0.4370 h1         1 V30       0.101200
     35 HAHA        -1.9410     0.0840    -1.2380 h1         1 V30       0.101200
@<TRIPOS>BOND
     1     1    17 2   
     2     1    19 1   
     3     2    10 1   
     4     2    14 1   
     5     2    21 1   
     6     3    17 1   
     7     3    18 1   
     8     3    22 1   
     9     4    15 1   
    10     4    23 1   
    11     4    24 1   
    12     4    25 1   
    13     5    16 1   
    14     5    26 1   
    15     5    27 1   
    16     5    28 1   
    17     6    14 2   
    18     7    18 2   
    19     8     9 1   
    20     8    29 1   
    21     9    10 1   
    22     9    30 1   
    23     9    31 1   
    24    10    32 1   
    25    10    33 1   
    26    11    12 1   
    27    11    14 1   
    28    11    34 1   
    29    11    35 1   
    30    12    17 1   
    31    13    15 1   
    32    13    19 1   
    33    15    16 2   
    34    16    20 1   
    35    18    20 1   
    36    19    20 2   
@<TRIPOS>SUBSTRUCTURE
     1 V30         1 TEMP              0 ****  ****    0 ROOT
