@<TRIPOS>MOLECULE
V31
   32    33     1     0     0
SMALL
bcc


@<TRIPOS>ATOM
      1 CAJ         36.9570     3.8470     2.8110 ca         1 V31      -0.105500
      2 CAG         36.0500     4.1910     1.8180 ca         1 V31      -0.122000
      3 CAF         35.6310     5.5080     1.6840 ca         1 V31      -0.131000
      4 CAH         36.1210     6.4790     2.5480 ca         1 V31      -0.122000
      5 CAK         37.0320     6.1350     3.5350 ca         1 V31      -0.105500
      6 CAR         37.4540     4.8150     3.6780 ca         1 V31      -0.064300
      7 CAN         38.4400     4.4550     4.7390 c3         1 V31      -0.176300
      8 SAU         40.1410     4.5890     4.1510 s6         1 V31       1.235900
      9 OAB         40.3000     5.8450     3.4370 o          1 V31      -0.627300
     10 OAC         40.9990     4.3200     5.2990 o          1 V31      -0.627300
     11 NAO         40.3310     3.4280     3.0140 nu         1 V31      -0.757500
     12 CAS         40.1960     2.0530     3.1990 ca         1 V31       0.201600
     13 CAL         40.4550     1.4090     4.4110 ca         1 V31      -0.222000
     14 CAI         40.3250     0.0350     4.5230 ca         1 V31      -0.086000
     15 CAQ         39.9440    -0.7070     3.4170 ca         1 V31      -0.065900
     16 BR          39.7700    -2.5850     3.5660 br         1 V31      -0.153100
     17 CAM         39.6910    -0.0860     2.2080 ca         1 V31      -0.050000
     18 CAT         39.8050     1.2930     2.0790 ca         1 V31      -0.200600
     19 CAP         39.4990     1.9150     0.7190 c          1 V31       0.933200
     20 OAD         39.6500     3.1660     0.6210 o          1 V31      -0.783300
     21 OAA         39.1280     1.1600    -0.1820 o          1 V31      -0.783300
     22 H1          37.2670     2.8140     2.9200 ha         1 V31       0.133500
     23 H2          35.6680     3.4290     1.1510 ha         1 V31       0.127500
     24 H3          34.9200     5.7760     0.9130 ha         1 V31       0.119000
     25 H4          35.7930     7.5060     2.4530 ha         1 V31       0.127500
     26 H5          37.4080     6.8940     4.2090 ha         1 V31       0.133500
     27 H6          38.3880     5.1310     5.5960 h1         1 V31       0.092200
     28 H7          38.3140     3.4340     5.1050 h1         1 V31       0.092200
     29 H8          40.0590     3.6600     2.0080 hn         1 V31       0.544800
     30 H9          40.7790     1.9660     5.2770 ha         1 V31       0.148000
     31 H10         40.5330    -0.4380     5.4730 ha         1 V31       0.127000
     32 H11         39.3930    -0.6590     1.3410 ha         1 V31       0.166000
@<TRIPOS>BOND
     1     1     2 ar  
     2     1     6 ar  
     3     1    22 1   
     4     2     3 ar  
     5     2    23 1   
     6     3     4 ar  
     7     3    24 1   
     8     4     5 ar  
     9     4    25 1   
    10     5     6 ar  
    11     5    26 1   
    12     6     7 1   
    13     7     8 1   
    14     7    27 1   
    15     7    28 1   
    16     8     9 2   
    17     8    10 2   
    18     8    11 1   
    19    11    12 1   
    20    11    29 1   
    21    12    13 ar  
    22    12    18 ar  
    23    13    14 ar  
    24    13    30 1   
    25    14    15 ar  
    26    14    31 1   
    27    15    16 1   
    28    15    17 ar  
    29    17    18 ar  
    30    17    32 1   
    31    18    19 1   
    32    19    20 1   
    33    19    21 1   
@<TRIPOS>SUBSTRUCTURE
     1 V31         1 TEMP              0 ****  ****    0 ROOT
