@<TRIPOS>MOLECULE
V31
   32    33     1     0     0
SMALL
No Charge or Current Charge


@<TRIPOS>ATOM
      1 CAJ         37.0330     3.3630     3.4080 ca         1 V31      -0.087500
      2 CAG         36.1110     3.3440     2.3480 ca         1 V31      -0.104000
      3 CAF         35.8260     4.5260     1.6430 ca         1 V31      -0.113000
      4 CAH         36.4630     5.7260     2.0020 ca         1 V31      -0.104000
      5 CAK         37.3880     5.7430     3.0610 ca         1 V31      -0.087500
      6 CAR         37.6840     4.5600     3.7640 ca         1 V31      -0.064300
      7 CAN         38.6870     4.5700     4.9130 c3         1 V31      -0.287100
      8 SAU         40.4190     4.7410     4.4350 s6         1 V31       1.205100
      9 OAB         40.6090     6.0310     3.7730 o          1 V31      -0.556500
     10 OAC         41.2840     4.3480     5.5500 o          1 V31      -0.556500
     11 NAO         40.6760     3.6440     3.2330 nu         1 V31      -0.951100
     12 CAS         40.2130     2.3440     3.1720 ca         1 V31       0.340000
     13 CAL         40.3490     1.4990     4.2900 ca         1 V31      -0.204000
     14 CAI         39.8690     0.1820     4.2600 ca         1 V31      -0.068000
     15 CAQ         39.2520    -0.3010     3.1010 ca         1 V31      -0.065900
     16 Br          38.5880    -2.0930     3.0520 br         1 V31      -0.153100
     17 CAM         39.1250     0.5230     1.9720 ca         1 V31      -0.032000
     18 CAT         39.6060     1.8560     1.9850 ca         1 V31      -0.200600
     19 CAP         39.4420     2.7030     0.7350 c          1 V31       0.722600
     20 OAD         39.6680     3.9050     0.7890 o          1 V31      -0.678000
     21 OAA         39.1050     2.1420    -0.2970 o          1 V31      -0.678000
     22 H1          37.2450     2.4430     3.9480 ha         1 V31       0.115500
     23 H2          35.6170     2.4150     2.0730 ha         1 V31       0.109500
     24 H3          35.1130     4.5120     0.8230 ha         1 V31       0.101000
     25 H4          36.2410     6.6420     1.4600 ha         1 V31       0.109500
     26 H5          37.8740     6.6780     3.3330 ha         1 V31       0.115500
     27 H6          38.4810     5.4000     5.5960 h1         1 V31       0.092200
     28 H7          38.6300     3.6330     5.4770 h1         1 V31       0.092200
     29 H8          40.3880     4.1820     2.4140 hn         1 V31       0.600000
     30 H9          40.8340     1.8550     5.1920 ha         1 V31       0.130000
     31 H10         39.9760    -0.4590     5.1320 ha         1 V31       0.109000
     32 H11         38.6430     0.1180     1.0840 ha         1 V31       0.148000
@<TRIPOS>BOND
     1     1     2 ar  
     2     1     6 ar  
     3     1    22 1   
     4     2     3 ar  
     5     2    23 1   
     6     3     4 ar  
     7     3    24 1   
     8     4     5 ar  
     9     4    25 1   
    10     5     6 ar  
    11     5    26 1   
    12     6     7 1   
    13     7     8 1   
    14     7    27 1   
    15     7    28 1   
    16     8     9 2   
    17     8    10 2   
    18     8    11 1   
    19    11    12 1   
    20    11    29 1   
    21    12    13 ar  
    22    12    18 ar  
    23    13    14 ar  
    24    13    30 1   
    25    14    15 ar  
    26    14    31 1   
    27    15    16 1   
    28    15    17 ar  
    29    17    18 ar  
    30    17    32 1   
    31    18    19 1   
    32    19    20 1   
    33    19    21 1   
@<TRIPOS>SUBSTRUCTURE
     1 V31         1 TEMP              0 ****  ****    0 ROOT
