@<TRIPOS>MOLECULE
V32
   29    30     1     0     0
SMALL
No Charge or Current Charge


@<TRIPOS>ATOM
      1 C01        -21.2960   -21.4840    -4.2320 c          1 V32       0.582500
      2 C02        -22.4540   -21.3560    -3.2760 ca         1 V32      -0.186600
      3 C03        -23.5420   -22.2520    -3.3280 ca         1 V32      -0.067000
      4 C04        -24.6140   -22.1200    -2.4290 ca         1 V32      -0.092000
      5 C05        -24.6310   -21.0830    -1.4710 ca         1 V32      -0.116600
      6 C06        -25.7930   -20.9810    -0.5000 c          1 V32       0.614700
      7 C08        -27.0300   -19.5950     1.2260 c6         1 V32       0.060000
      8 C09        -28.4210   -19.0480     0.8190 c6         1 V32       0.132100
      9 C11        -27.4840   -17.9330    -1.1000 c6         1 V32       0.132100
     10 C12        -26.0630   -18.4640    -0.7670 c6         1 V32       0.060000
     11 C14        -23.5260   -20.2030    -1.4080 ca         1 V32      -0.092000
     12 C15        -22.4520   -20.3340    -2.3060 ca         1 V32      -0.067000
     13 N07        -26.1110   -19.7160     0.0530 n          1 V32      -0.409800
     14 O10        -28.2670   -17.8010     0.1060 os         1 V32      -0.442000
     15 O13        -26.3880   -21.9890    -0.1370 o          1 V32      -0.588100
     16 H1         -20.4820   -20.7350    -4.1120 h4         1 V32      -0.008800
     17 H4         -23.5600   -23.0540    -4.0630 ha         1 V32       0.127500
     18 H5         -25.4420   -22.8240    -2.4850 ha         1 V32       0.128500
     19 H6         -27.1510   -20.5620     1.7320 h1         1 V32       0.066200
     20 H7         -26.5780   -18.9090     1.9580 h1         1 V32       0.066200
     21 H8         -29.0360   -18.8780     1.7150 h1         1 V32       0.055450
     22 H9         -28.9410   -19.7740     0.1770 h1         1 V32       0.055450
     23 H10        -27.4120   -16.9540    -1.5940 h1         1 V32       0.055450
     24 H11        -27.9910   -18.6260    -1.7870 h1         1 V32       0.055450
     25 H12        -25.5360   -18.6310    -1.7150 h1         1 V32       0.066200
     26 H13        -25.5080   -17.6930    -0.2140 h1         1 V32       0.066200
     27 H14        -23.4830   -19.4230    -0.6510 ha         1 V32       0.128500
     28 H15        -21.6150   -19.6420    -2.2400 ha         1 V32       0.127500
     29 O1         -21.2270   -22.3500    -5.0980 o          1 V32      -0.509100
@<TRIPOS>BOND
     1     1     2 1   
     2     1    16 1   
     3     1    29 2   
     4     2     3 ar  
     5     2    12 ar  
     6     3     4 ar  
     7     3    17 1   
     8     4     5 ar  
     9     4    18 1   
    10     5     6 1   
    11     5    11 ar  
    12     6    13 1   
    13     6    15 2   
    14     7     8 1   
    15     7    13 1   
    16     7    19 1   
    17     7    20 1   
    18     8    14 1   
    19     8    21 1   
    20     8    22 1   
    21     9    10 1   
    22     9    14 1   
    23     9    23 1   
    24     9    24 1   
    25    10    13 1   
    26    10    25 1   
    27    10    26 1   
    28    11    12 ar  
    29    11    27 1   
    30    12    28 1   
@<TRIPOS>SUBSTRUCTURE
     1 V32         1 TEMP              0 ****  ****    0 ROOT
