@<TRIPOS>MOLECULE
V32
   29    30     1     0     0
SMALL
abcg2


@<TRIPOS>ATOM
      1 C01        -21.4490   -21.4620    -4.2140 c          1 V32       0.582500
      2 C02        -22.5510   -21.3030    -3.2500 ca         1 V32      -0.186600
      3 C03        -23.7180   -22.0600    -3.3540 ca         1 V32      -0.067000
      4 C04        -24.7210   -21.9130    -2.4160 ca         1 V32      -0.092000
      5 C05        -24.5820   -20.9900    -1.3800 ca         1 V32      -0.116600
      6 C06        -25.6290   -20.9440    -0.3070 c          1 V32       0.614700
      7 C08        -27.0490   -19.5980     1.1450 c6         1 V32       0.060000
      8 C09        -28.4000   -19.0900     0.6770 c6         1 V32       0.132100
      9 C11        -27.4450   -18.0640    -1.1770 c6         1 V32       0.132100
     10 C12        -26.0500   -18.5370    -0.7940 c6         1 V32       0.060000
     11 C14        -23.4210   -20.2310    -1.2780 ca         1 V32      -0.092000
     12 C15        -22.4080   -20.3920    -2.2090 ca         1 V32      -0.067000
     13 N07        -26.1490   -19.7440     0.0110 n          1 V32      -0.409800
     14 O10        -28.2680   -17.8890    -0.0490 os         1 V32      -0.442000
     15 O13        -25.9320   -21.9850     0.2590 o          1 V32      -0.588100
     16 H1         -20.5890   -20.7910    -4.0420 h4         1 V32      -0.008800
     17 H4         -23.8350   -22.7700    -4.1630 ha         1 V32       0.127500
     18 H5         -25.6200   -22.5110    -2.4900 ha         1 V32       0.128500
     19 H6         -27.1590   -20.5520     1.6550 h1         1 V32       0.066200
     20 H7         -26.6050   -18.8870     1.8500 h1         1 V32       0.066200
     21 H8         -29.0390   -18.8850     1.5380 h1         1 V32       0.055450
     22 H9         -28.8890   -19.8610     0.0660 h1         1 V32       0.055450
     23 H10        -27.3760   -17.1020    -1.6870 h1         1 V32       0.055450
     24 H11        -27.8910   -18.7870    -1.8740 h1         1 V32       0.055450
     25 H12        -25.4820   -18.7210    -1.7020 h1         1 V32       0.066200
     26 H13        -25.5310   -17.7610    -0.2240 h1         1 V32       0.066200
     27 H14        -23.2980   -19.5220    -0.4680 ha         1 V32       0.128500
     28 H15        -21.4980   -19.8080    -2.1230 ha         1 V32       0.127500
     29 O1         -21.4490   -22.2550    -5.1250 o          1 V32      -0.509100
@<TRIPOS>BOND
     1     1     2 1   
     2     1    16 1   
     3     1    29 2   
     4     2     3 ar  
     5     2    12 ar  
     6     3     4 ar  
     7     3    17 1   
     8     4     5 ar  
     9     4    18 1   
    10     5     6 1   
    11     5    11 ar  
    12     6    13 1   
    13     6    15 2   
    14     7     8 1   
    15     7    13 1   
    16     7    19 1   
    17     7    20 1   
    18     8    14 1   
    19     8    21 1   
    20     8    22 1   
    21     9    10 1   
    22     9    14 1   
    23     9    23 1   
    24     9    24 1   
    25    10    13 1   
    26    10    25 1   
    27    10    26 1   
    28    11    12 ar  
    29    11    27 1   
    30    12    28 1   
@<TRIPOS>SUBSTRUCTURE
     1 V32         1 TEMP              0 ****  ****    0 ROOT
