@<TRIPOS>MOLECULE
V33
   21    21     1     0     0
SMALL
abcg2


@<TRIPOS>ATOM
      1 C7          -2.9190    15.0910   -34.2360 c3         1 V33      -0.181100
      2 C8          -3.5900    15.5720   -35.5510 c          1 V33       0.716000
      3 O1          -2.8870    16.2730   -36.3230 o          1 V33      -0.728500
      4 C1          -0.3620    12.4560   -35.2130 ca         1 V33       0.117100
      5 C5          -2.2560    13.7530   -34.4360 ca         1 V33       0.022700
      6 C6          -0.9690    13.6880   -34.9810 ca         1 V33      -0.186000
      7 C4          -2.9230    12.5700   -34.1230 ca         1 V33      -0.147000
      8 C3          -2.3110    11.3400   -34.3550 ca         1 V33      -0.091000
      9 C2          -1.0380    11.2730   -34.8980 ca         1 V33      -0.178000
     10 O2          -4.7740    15.2010   -35.7490 o          1 V33      -0.728500
     11 C            1.6140    13.4810   -36.0970 c3         1 V33       0.152900
     12 H1          -2.1790    15.8310   -33.9290 hc         1 V33       0.032700
     13 H2          -3.6820    15.0100   -33.4610 hc         1 V33       0.032700
     14 H3          -0.4570    14.6090   -35.2210 ha         1 V33       0.124000
     15 H4          -3.9180    12.6120   -33.6980 ha         1 V33       0.115000
     16 H5          -2.8310    10.4230   -34.1050 ha         1 V33       0.091000
     17 H6          -0.5510    10.3230   -35.0790 ha         1 V33       0.102000
     18 H8           2.5630    13.1330   -36.4990 h1         1 V33       0.034700
     19 H9           1.0810    14.0560   -36.8580 h1         1 V33       0.034700
     20 H10          1.7960    14.1140   -35.2250 h1         1 V33       0.034700
     21 O            0.8890    12.3070   -35.7380 os         1 V33      -0.371100
@<TRIPOS>BOND
     1     1     2 1   
     2     1     5 1   
     3     1    12 1   
     4     1    13 1   
     5     2     3 1   
     6     2    10 1   
     7     4     6 ar  
     8     4     9 ar  
     9     4    21 1   
    10     5     6 ar  
    11     5     7 ar  
    12     6    14 1   
    13     7     8 ar  
    14     7    15 1   
    15     8     9 ar  
    16     8    16 1   
    17     9    17 1   
    18    11    18 1   
    19    11    19 1   
    20    11    20 1   
    21    11    21 1   
@<TRIPOS>SUBSTRUCTURE
     1 V33         1 TEMP              0 ****  ****    0 ROOT
