@<TRIPOS>MOLECULE
V33
   21    21     1     0     0
SMALL
No Charge or Current Charge


@<TRIPOS>ATOM
      1 C7          -2.9240    15.1370   -34.2310 c3         1 V33      -0.181100
      2 C8          -3.7040    15.5610   -35.4840 c          1 V33       0.716000
      3 O1          -3.1040    16.1670   -36.3590 o          1 V33      -0.728500
      4 C1          -0.3550    12.4480   -35.2170 ca         1 V33       0.117100
      5 C5          -2.2680    13.7810   -34.4710 ca         1 V33       0.022700
      6 C6          -0.9640    13.7040   -34.9990 ca         1 V33      -0.186000
      7 C4          -2.9590    12.5930   -34.1610 ca         1 V33      -0.147000
      8 C3          -2.3570    11.3430   -34.3760 ca         1 V33      -0.091000
      9 C2          -1.0570    11.2740   -34.9020 ca         1 V33      -0.178000
     10 O2          -4.8600    15.1810   -35.5990 o          1 V33      -0.728500
     11 C            1.7230    13.4570   -36.0880 c3         1 V33       0.152900
     12 H1          -2.1190    15.8540   -34.0270 hc         1 V33       0.032700
     13 H2          -3.6090    15.0170   -33.3830 hc         1 V33       0.032700
     14 H3          -0.4420    14.6260   -35.2360 ha         1 V33       0.124000
     15 H4          -3.9660    12.6400   -33.7540 ha         1 V33       0.115000
     16 H5          -2.8960    10.4300   -34.1350 ha         1 V33       0.091000
     17 H6          -0.5920    10.3050   -35.0680 ha         1 V33       0.102000
     18 H8           2.6960    13.1300   -36.4750 h1         1 V33       0.034700
     19 H9           1.2310    14.0550   -36.8660 h1         1 V33       0.034700
     20 H10          1.9040    14.0960   -35.2130 h1         1 V33       0.034700
     21 O            0.9190    12.3180   -35.7320 os         1 V33      -0.371100
@<TRIPOS>BOND
     1     1     2 1   
     2     1     5 1   
     3     1    12 1   
     4     1    13 1   
     5     2     3 1   
     6     2    10 1   
     7     4     6 ar  
     8     4     9 ar  
     9     4    21 1   
    10     5     6 ar  
    11     5     7 ar  
    12     6    14 1   
    13     7     8 ar  
    14     7    15 1   
    15     8     9 ar  
    16     8    16 1   
    17     9    17 1   
    18    11    18 1   
    19    11    19 1   
    20    11    20 1   
    21    11    21 1   
@<TRIPOS>SUBSTRUCTURE
     1 V33         1 TEMP              0 ****  ****    0 ROOT
