@<TRIPOS>MOLECULE
V34
   73    75     1     0     0
SMALL
abcg2


@<TRIPOS>ATOM
      1 C1          10.6020     7.0570    33.6830 c3         1 V34      -0.097100
      2 C2           9.1810     7.3890    33.2970 c3         1 V34       0.167600
      3 O3           9.2270     8.4080    32.2870 os         1 V34      -0.448100
      4 C4           8.0810     8.8400    31.7800 c          1 V34       0.596300
      5 O5           6.9980     8.4210    32.1180 o          1 V34      -0.494000
      6 C6           8.3140     9.8840    30.7640 ce         1 V34      -0.268200
      7 C7           7.2980    10.4310    30.1030 c2         1 V34      -0.150200
      8 C8           7.4070    11.4910    29.0520 c3         1 V34       0.127900
      9 C9           6.7420    11.0190    27.7510 c3         1 V34      -0.070400
     10 C10          6.7720    12.0880    26.6720 c5         1 V34      -0.159700
     11 C11          6.0760    13.4040    27.0140 c5         1 V34      -0.089400
     12 C12          5.6440    13.9440    25.6510 c5         1 V34       0.101000
     13 N13          5.4540    12.7290    24.8860 ns         1 V34      -0.513900
     14 C14          6.0840    11.6540    25.3870 c          1 V34       0.564000
     15 O15          6.1120    10.5380    24.8930 o          1 V34      -0.560000
     16 N16          8.7640    11.9090    28.8060 ns         1 V34      -0.497900
     17 C17          9.2420    13.1280    29.1140 c          1 V34       0.587100
     18 O18          8.6050    13.9830    29.7050 o          1 V34      -0.597100
     19 C19         10.7020    13.3550    28.7190 c3         1 V34       0.037700
     20 C20         11.5920    13.1020    29.9360 c3         1 V34      -0.087400
     21 C21         13.0940    13.2460    29.6840 c3         1 V34      -0.058700
     22 C22         13.5800    12.3220    28.5730 c3         1 V34      -0.091600
     23 C23         13.8490    12.9780    30.9820 c3         1 V34      -0.091600
     24 N24         10.8800    14.7000    28.2380 ns         1 V34      -0.471900
     25 C25         10.2690    15.1200    27.1170 c          1 V34       0.637300
     26 O26          9.5900    14.3790    26.4150 o          1 V34      -0.634100
     27 C27         10.4690    16.5300    26.7490 cc         1 V34      -0.161300
     28 C28         11.2690    17.5110    27.2760 cd         1 V34      -0.160200
     29 C29         11.0500    18.6740    26.4900 ca         1 V34      -0.145800
     30 C30         11.5750    19.9810    26.5340 ca         1 V34       0.201100
     31 O31         12.4710    20.2200    27.5050 os         1 V34      -0.336100
     32 C32         13.0290    21.5170    27.5980 c3         1 V34       0.146900
     33 C33         11.1380    20.8990    25.5980 ca         1 V34      -0.245000
     34 C34         10.1890    20.5280    24.6220 ca         1 V34      -0.040000
     35 C35          9.6560    19.2620    24.5470 ca         1 V34      -0.169000
     36 C36         10.1050    18.3390    25.5000 ca         1 V34      -0.002200
     37 N37          9.7760    17.0360    25.6830 na         1 V34      -0.184700
     38 H1          10.5910     6.2860    34.4530 hc         1 V34       0.046033
     39 H2          11.1690     6.6730    32.8360 hc         1 V34       0.046033
     40 H3          11.1230     7.9250    34.0870 hc         1 V34       0.046033
     41 H4           8.6170     7.7510    34.1590 h1         1 V34       0.048700
     42 H5           8.6670     6.5070    32.9080 h1         1 V34       0.048700
     43 H6           9.3380    10.1860    30.5810 ha         1 V34       0.197000
     44 H8           6.2850    10.1040    30.3160 ha         1 V34       0.200000
     45 H10          6.8560    12.3620    29.4180 h1         1 V34       0.097700
     46 H11          5.7080    10.7420    27.9750 hc         1 V34       0.063700
     47 H12          7.2420    10.1140    27.3950 hc         1 V34       0.063700
     48 H13          7.8140    12.3020    26.4030 hc         1 V34       0.092700
     49 H14          5.1950    13.2120    27.6320 hc         1 V34       0.063700
     50 H15          6.7170    14.1020    27.5490 hc         1 V34       0.063700
     51 H16          6.4200    14.5750    25.2050 h1         1 V34       0.044700
     52 H17          4.7240    14.5270    25.6980 h1         1 V34       0.044700
     53 H18          5.0190    12.7190    23.9770 hn         1 V34       0.326500
     54 H19          9.3420    11.2990    28.2480 hn         1 V34       0.318500
     55 H20         10.9730    12.6560    27.9220 h1         1 V34       0.075700
     56 H21         11.2900    13.7780    30.7420 hc         1 V34       0.059200
     57 H22         11.3910    12.0870    30.2940 hc         1 V34       0.059200
     58 H23         13.3030    14.2790    29.3850 hc         1 V34       0.047700
     59 H24         14.6660    12.3710    28.4760 hc         1 V34       0.036700
     60 H25         13.3120    11.2840    28.7830 hc         1 V34       0.036700
     61 H26         13.1590    12.5860    27.6020 hc         1 V34       0.036700
     62 H27         13.5120    13.6380    31.7840 hc         1 V34       0.036700
     63 H28         13.7010    11.9490    31.3160 hc         1 V34       0.036700
     64 H29         14.9210    13.1340    30.8520 hc         1 V34       0.036700
     65 H30         11.2890    15.3770    28.8620 hn         1 V34       0.332500
     66 H31         11.9430    17.4190    28.1130 ha         1 V34       0.209000
     67 H32         13.7160    21.4990    28.4390 h1         1 V34       0.042700
     68 H33         13.5820    21.7870    26.6940 h1         1 V34       0.042700
     69 H34         12.2640    22.2750    27.7830 h1         1 V34       0.042700
     70 H35         11.5100    21.9140    25.5900 ha         1 V34       0.117000
     71 H36          9.8730    21.2780    23.9090 ha         1 V34       0.111000
     72 H37          8.9310    18.9960    23.7910 ha         1 V34       0.120000
     73 H38          9.1230    16.5040    25.1300 hn         1 V34       0.369000
@<TRIPOS>BOND
     1     1     2 1   
     2     1    38 1   
     3     1    39 1   
     4     1    40 1   
     5     2     3 1   
     6     2    41 1   
     7     2    42 1   
     8     3     4 1   
     9     4     5 2   
    10     4     6 1   
    11     6     7 2   
    12     6    43 1   
    13     7     8 1   
    14     7    44 1   
    15     8     9 1   
    16     8    16 1   
    17     8    45 1   
    18     9    10 1   
    19     9    46 1   
    20     9    47 1   
    21    10    11 1   
    22    10    14 1   
    23    10    48 1   
    24    11    12 1   
    25    11    49 1   
    26    11    50 1   
    27    12    13 1   
    28    12    51 1   
    29    12    52 1   
    30    13    14 1   
    31    13    53 1   
    32    14    15 2   
    33    16    17 1   
    34    16    54 1   
    35    17    18 2   
    36    17    19 1   
    37    19    20 1   
    38    19    24 1   
    39    19    55 1   
    40    20    21 1   
    41    20    56 1   
    42    20    57 1   
    43    21    22 1   
    44    21    23 1   
    45    21    58 1   
    46    22    59 1   
    47    22    60 1   
    48    22    61 1   
    49    23    62 1   
    50    23    63 1   
    51    23    64 1   
    52    24    25 1   
    53    24    65 1   
    54    25    26 2   
    55    25    27 1   
    56    27    28 2   
    57    27    37 1   
    58    28    29 1   
    59    28    66 1   
    60    29    30 ar  
    61    29    36 ar  
    62    30    31 1   
    63    30    33 ar  
    64    31    32 1   
    65    32    67 1   
    66    32    68 1   
    67    32    69 1   
    68    33    34 ar  
    69    33    70 1   
    70    34    35 ar  
    71    34    71 1   
    72    35    36 ar  
    73    35    72 1   
    74    36    37 1   
    75    37    73 1   
@<TRIPOS>SUBSTRUCTURE
     1 V34         1 TEMP              0 ****  ****    0 ROOT
