@<TRIPOS>MOLECULE
V34
   73    75     1     0     0
SMALL
No Charge or Current Charge


@<TRIPOS>ATOM
      1 C1          10.1720     5.5680    32.3020 c3         1 V34      -0.097100
      2 C2           9.4140     6.7580    32.9110 c3         1 V34       0.167600
      3 O3           9.1690     7.7010    31.8550 os         1 V34      -0.448100
      4 C4           8.5010     8.8530    32.1660 c          1 V34       0.596300
      5 O5           8.0940     9.1430    33.2830 o          1 V34      -0.494000
      6 C6           8.3350     9.7130    30.9640 ce         1 V34      -0.268200
      7 C7           7.7120    10.9190    30.9710 c2         1 V34      -0.150200
      8 C8           7.5190    11.8350    29.7810 c3         1 V34       0.127900
      9 C9           6.6500    11.1770    28.6810 c3         1 V34      -0.070400
     10 C10          6.2730    12.1000    27.4880 c5         1 V34      -0.159700
     11 C11          5.3590    13.3060    27.8470 c5         1 V34      -0.089400
     12 C12          4.7690    13.6680    26.4570 c5         1 V34       0.101000
     13 N13          4.6240    12.3360    25.8740 ns         1 V34      -0.513900
     14 C14          5.4740    11.3930    26.3860 c          1 V34       0.564000
     15 O15          5.3870    10.2040    26.1250 o          1 V34      -0.560000
     16 N16          8.8370    12.2120    29.2700 ns         1 V34      -0.497900
     17 C17          9.2370    13.4970    28.9630 c          1 V34       0.587100
     18 O18          8.4990    14.4630    29.1140 o          1 V34      -0.597100
     19 C19         10.6880    13.6140    28.4140 c3         1 V34       0.037700
     20 C20         11.7320    13.3800    29.5450 c3         1 V34      -0.087400
     21 C21         13.2140    13.2590    29.0920 c3         1 V34      -0.058700
     22 C22         13.4680    12.0070    28.2180 c3         1 V34      -0.091600
     23 C23         14.1650    13.2700    30.3100 c3         1 V34      -0.091600
     24 N24         10.8790    14.9410    27.7850 ns         1 V34      -0.471900
     25 C25         11.5160    15.1770    26.5880 c          1 V34       0.637300
     26 O26         11.9880    14.2780    25.9050 o          1 V34      -0.634100
     27 C27         11.5760    16.6090    26.1910 cc         1 V34      -0.161300
     28 C28         11.0710    17.7010    26.8990 cd         1 V34      -0.160200
     29 C29         11.3270    18.9280    26.1850 ca         1 V34      -0.145800
     30 C30         11.0210    20.2630    26.4810 ca         1 V34       0.201100
     31 O31         10.3510    20.5600    27.6490 os         1 V34      -0.336100
     32 C32         10.0090    21.9100    28.0070 c3         1 V34       0.146900
     33 C33         11.4270    21.2460    25.5430 ca         1 V34      -0.245000
     34 C34         12.1130    20.8680    24.3630 ca         1 V34      -0.040000
     35 C35         12.4010    19.5100    24.1050 ca         1 V34      -0.169000
     36 C36         11.9880    18.5620    25.0480 ca         1 V34      -0.002200
     37 N37         12.1470    17.1860    25.0310 na         1 V34      -0.184700
     38 H1          10.3830     4.8180    33.0730 hc         1 V34       0.046033
     39 H2           9.5760     5.0930    31.5140 hc         1 V34       0.046033
     40 H3          11.1250     5.8960    31.8710 hc         1 V34       0.046033
     41 H4          10.0210     7.2100    33.7070 h1         1 V34       0.048700
     42 H5           8.4700     6.4060    33.3490 h1         1 V34       0.048700
     43 H6           8.7550     9.3050    30.0470 ha         1 V34       0.197000
     44 H8           7.2940    11.3170    31.8990 ha         1 V34       0.200000
     45 H10          6.9980    12.7380    30.1320 h1         1 V34       0.097700
     46 H11          5.7320    10.7990    29.1470 hc         1 V34       0.063700
     47 H12          7.1800    10.2940    28.3030 hc         1 V34       0.063700
     48 H13          7.1840    12.4870    27.0160 hc         1 V34       0.092700
     49 H14          4.5620    13.0100    28.5390 hc         1 V34       0.063700
     50 H15          5.8980    14.1430    28.3050 hc         1 V34       0.063700
     51 H16          5.4650    14.2850    25.8730 h1         1 V34       0.044700
     52 H17          3.8150    14.2040    26.5410 h1         1 V34       0.044700
     53 H18          3.9390    12.0570    25.1820 hn         1 V34       0.326500
     54 H19          9.5180    11.4770    29.1260 hn         1 V34       0.318500
     55 H20         10.7900    12.8330    27.6510 h1         1 V34       0.075700
     56 H21         11.6430    14.2020    30.2660 hc         1 V34       0.059200
     57 H22         11.4680    12.4680    30.0960 hc         1 V34       0.059200
     58 H23         13.4610    14.1420    28.4890 hc         1 V34       0.047700
     59 H24         14.5230    11.9500    27.9240 hc         1 V34       0.036700
     60 H25         13.2160    11.0910    28.7650 hc         1 V34       0.036700
     61 H26         12.8720    12.0320    27.2990 hc         1 V34       0.036700
     62 H27         14.0310    14.1850    30.8990 hc         1 V34       0.036700
     63 H28         13.9750    12.4100    30.9630 hc         1 V34       0.036700
     64 H29         15.2120    13.2300    29.9860 hc         1 V34       0.036700
     65 H30         10.4770    15.7450    28.2470 hn         1 V34       0.332500
     66 H31         10.5550    17.6560    27.8550 ha         1 V34       0.209000
     67 H32          9.4820    21.9270    28.9690 h1         1 V34       0.042700
     68 H33         10.9110    22.5280    28.1020 h1         1 V34       0.042700
     69 H34          9.3530    22.3590    27.2510 h1         1 V34       0.042700
     70 H35         11.2210    22.2990    25.7110 ha         1 V34       0.117000
     71 H36         12.4210    21.6290    23.6480 ha         1 V34       0.111000
     72 H37         12.9270    19.2120    23.2010 ha         1 V34       0.120000
     73 H38         12.6080    16.6660    24.2920 hn         1 V34       0.369000
@<TRIPOS>BOND
     1     1     2 1   
     2     1    38 1   
     3     1    39 1   
     4     1    40 1   
     5     2     3 1   
     6     2    41 1   
     7     2    42 1   
     8     3     4 1   
     9     4     5 2   
    10     4     6 1   
    11     6     7 2   
    12     6    43 1   
    13     7     8 1   
    14     7    44 1   
    15     8     9 1   
    16     8    16 1   
    17     8    45 1   
    18     9    10 1   
    19     9    46 1   
    20     9    47 1   
    21    10    11 1   
    22    10    14 1   
    23    10    48 1   
    24    11    12 1   
    25    11    49 1   
    26    11    50 1   
    27    12    13 1   
    28    12    51 1   
    29    12    52 1   
    30    13    14 1   
    31    13    53 1   
    32    14    15 2   
    33    16    17 1   
    34    16    54 1   
    35    17    18 2   
    36    17    19 1   
    37    19    20 1   
    38    19    24 1   
    39    19    55 1   
    40    20    21 1   
    41    20    56 1   
    42    20    57 1   
    43    21    22 1   
    44    21    23 1   
    45    21    58 1   
    46    22    59 1   
    47    22    60 1   
    48    22    61 1   
    49    23    62 1   
    50    23    63 1   
    51    23    64 1   
    52    24    25 1   
    53    24    65 1   
    54    25    26 2   
    55    25    27 1   
    56    27    28 2   
    57    27    37 1   
    58    28    29 1   
    59    28    66 1   
    60    29    30 ar  
    61    29    36 ar  
    62    30    31 1   
    63    30    33 ar  
    64    31    32 1   
    65    32    67 1   
    66    32    68 1   
    67    32    69 1   
    68    33    34 ar  
    69    33    70 1   
    70    34    35 ar  
    71    34    71 1   
    72    35    36 ar  
    73    35    72 1   
    74    36    37 1   
    75    37    73 1   
@<TRIPOS>SUBSTRUCTURE
     1 V34         1 TEMP              0 ****  ****    0 ROOT
