@<TRIPOS>MOLECULE
V37
   50    53     1     0     0
SMALL
bcc


@<TRIPOS>ATOM
      1 O2           3.7650    -1.7190     1.4440 o          1 V37      -0.547000
      2 C1           3.5900    -0.9180     0.5560 c          1 V37       0.658700
      3 C2           4.5930     0.1110     0.1750 ca         1 V37      -0.143600
      4 C7           4.3580     1.0450    -0.8340 ca         1 V37      -0.074500
      5 C6           5.3270     1.9850    -1.1500 ca         1 V37      -0.146500
      6 C5           6.5360     1.9990    -0.4660 ca         1 V37      -0.100000
      7 C4           6.7750     1.0710     0.5400 ca         1 V37      -0.146500
      8 C3           5.8080     0.1320     0.8600 ca         1 V37      -0.074500
      9 O1           2.4990    -0.8570    -0.1850 os         1 V37      -0.427900
     10 C8           1.4180    -1.7830     0.0660 c6         1 V37       0.164100
     11 C12          0.5530    -1.3100     1.2330 c6         1 V37      -0.074900
     12 C11         -0.4980    -0.2830     0.8210 c5         1 V37       0.164500
     13 C13          0.0990     0.9810     0.1600 c5         1 V37      -0.101900
     14 C14          0.1290     0.6270    -1.3400 c5         1 V37      -0.101900
     15 C10         -0.4470    -0.8060    -1.3810 c5         1 V37       0.164500
     16 C9           0.6150    -1.8930    -1.2270 c6         1 V37      -0.074900
     17 N           -1.3310    -0.8940    -0.2180 n3         1 V37      -0.708600
     18 C15         -2.6140    -0.2370    -0.4000 c3         1 V37       0.166800
     19 C16         -3.6320    -0.7060     0.6400 c3         1 V37      -0.032100
     20 C17         -4.9660    -0.0430     0.4360 ca         1 V37      -0.080300
     21 C22         -5.2690     1.1630     1.0620 ca         1 V37      -0.125500
     22 C21         -6.4850     1.7970     0.8390 ca         1 V37      -0.128000
     23 C20         -7.4200     1.2320    -0.0180 ca         1 V37      -0.130000
     24 C19         -7.1280     0.0290    -0.6490 ca         1 V37      -0.128000
     25 C18         -5.9110    -0.6000    -0.4240 ca         1 V37      -0.125500
     26 H7           3.4230     1.0460    -1.3770 ha         1 V37       0.149500
     27 H3           5.9950    -0.5890     1.6450 ha         1 V37       0.149500
     28 H6           5.1390     2.7070    -1.9330 ha         1 V37       0.135000
     29 H5           7.2920     2.7320    -0.7180 ha         1 V37       0.133000
     30 H4           7.7150     1.0780     1.0740 ha         1 V37       0.135000
     31 H8           1.8560    -2.7540     0.3020 h1         1 V37       0.064700
     32 H121         0.0320    -2.1820     1.6340 hc         1 V37       0.060450
     33 H122         1.1730    -0.9200     2.0430 hc         1 V37       0.060450
     34 H91C         1.2910    -1.9040    -2.0860 hc         1 V37       0.060450
     35 H92C         0.1060    -2.8600    -1.2170 hc         1 V37       0.060450
     36 H11         -1.0980    -0.0350     1.6990 h1         1 V37       0.062200
     37 H131        -0.5500     1.8390     0.3400 hc         1 V37       0.048700
     38 H132         1.0770     1.2400     0.5630 hc         1 V37       0.048700
     39 H141        -0.5120     1.3020    -1.9090 hc         1 V37       0.048700
     40 H142         1.1230     0.6950    -1.7800 hc         1 V37       0.048700
     41 H10         -1.0100    -0.9960    -2.2970 h1         1 V37       0.062200
     42 H151        -2.5520     0.8620    -0.3730 h1         1 V37       0.036200
     43 H152        -2.9890    -0.4980    -1.3930 h1         1 V37       0.036200
     44 H161        -3.7330    -1.7910     0.5660 hc         1 V37       0.053700
     45 H162        -3.2660    -0.4880     1.6470 hc         1 V37       0.053700
     46 H22         -4.5490     1.6110     1.7370 ha         1 V37       0.128500
     47 H18         -5.6940    -1.5400    -0.9170 ha         1 V37       0.128500
     48 H21         -6.7030     2.7330     1.3380 ha         1 V37       0.129000
     49 H20         -8.3690     1.7220    -0.1900 ha         1 V37       0.130000
     50 H19         -7.8510    -0.4220    -1.3180 ha         1 V37       0.129000
@<TRIPOS>BOND
     1     1     2 2   
     2     2     3 1   
     3     2     9 1   
     4     3     4 ar  
     5     3     8 ar  
     6     4     5 ar  
     7     4    26 1   
     8     5     6 ar  
     9     5    28 1   
    10     6     7 ar  
    11     6    29 1   
    12     7     8 ar  
    13     7    30 1   
    14     8    27 1   
    15     9    10 1   
    16    10    11 1   
    17    10    16 1   
    18    10    31 1   
    19    11    12 1   
    20    11    32 1   
    21    11    33 1   
    22    12    13 1   
    23    12    17 1   
    24    12    36 1   
    25    13    14 1   
    26    13    37 1   
    27    13    38 1   
    28    14    15 1   
    29    14    39 1   
    30    14    40 1   
    31    15    16 1   
    32    15    17 1   
    33    15    41 1   
    34    16    34 1   
    35    16    35 1   
    36    17    18 1   
    37    18    19 1   
    38    18    42 1   
    39    18    43 1   
    40    19    20 1   
    41    19    44 1   
    42    19    45 1   
    43    20    21 ar  
    44    20    25 ar  
    45    21    22 ar  
    46    21    46 1   
    47    22    23 ar  
    48    22    48 1   
    49    23    24 ar  
    50    23    49 1   
    51    24    25 ar  
    52    24    50 1   
    53    25    47 1   
@<TRIPOS>SUBSTRUCTURE
     1 V37         1 TEMP              0 ****  ****    0 ROOT
