@<TRIPOS>MOLECULE
V37
   50    53     1     0     0
SMALL
No Charge or Current Charge


@<TRIPOS>ATOM
      1 O2           3.8020    -1.8180     1.3970 o          1 V37      -0.498000
      2 C1           3.6550    -0.9930     0.5040 c          1 V37       0.609700
      3 C2           4.6590     0.1020     0.2250 ca         1 V37      -0.143600
      4 C7           4.4570     1.0410    -0.8150 ca         1 V37      -0.056500
      5 C6           5.4030     2.0530    -1.0550 ca         1 V37      -0.128500
      6 C5           6.5580     2.1430    -0.2630 ca         1 V37      -0.082000
      7 C4           6.7690     1.2180     0.7720 ca         1 V37      -0.128500
      8 C3           5.8260     0.2040     1.0150 ca         1 V37      -0.056500
      9 O1           2.5750    -0.9780    -0.3410 os         1 V37      -0.451100
     10 C8           1.4780    -1.9040    -0.1760 c6         1 V37       0.187300
     11 C12          0.6060    -1.5670     1.0640 c6         1 V37      -0.074900
     12 C11         -0.4510    -0.4580     0.7900 c5         1 V37       0.164500
     13 C13          0.1130     0.8790     0.2100 c5         1 V37      -0.101900
     14 C14          0.1010     0.6530    -1.3420 c5         1 V37      -0.101900
     15 C10         -0.4550    -0.7970    -1.5080 c5         1 V37       0.164500
     16 C9           0.6070    -1.9350    -1.4540 c6         1 V37      -0.074900
     17 N           -1.3340    -0.9280    -0.3150 n3         1 V37      -0.708600
     18 C15         -2.6550    -0.2500    -0.4390 c3         1 V37       0.166800
     19 C16         -3.6240    -0.5240     0.7320 c3         1 V37      -0.032100
     20 C17         -4.9990     0.0860     0.4870 ca         1 V37      -0.080300
     21 C22         -5.2240     1.4520     0.7490 ca         1 V37      -0.107500
     22 C21         -6.4900     2.0190     0.5190 ca         1 V37      -0.110000
     23 C20         -7.5380     1.2230     0.0250 ca         1 V37      -0.112000
     24 C19         -7.3180    -0.1390    -0.2400 ca         1 V37      -0.110000
     25 C18         -6.0530    -0.7060    -0.0100 ca         1 V37      -0.107500
     26 H7           3.5710     0.9930    -1.4430 ha         1 V37       0.131500
     27 H3           6.0070    -0.5040     1.8230 ha         1 V37       0.131500
     28 H6           5.2380     2.7700    -1.8570 ha         1 V37       0.117000
     29 H5           7.2890     2.9280    -0.4500 ha         1 V37       0.115000
     30 H4           7.6640     1.2860     1.3870 ha         1 V37       0.117000
     31 H8           1.9130    -2.9060    -0.0430 h1         1 V37       0.064700
     32 H121         0.0810    -2.4760     1.3860 hc         1 V37       0.060450
     33 H122         1.2360    -1.2710     1.9120 hc         1 V37       0.060450
     34 H91C         1.2500    -1.8850    -2.3430 hc         1 V37       0.060450
     35 H92C         0.0880    -2.9010    -1.5100 hc         1 V37       0.060450
     36 H11         -0.9950    -0.2860     1.7280 h1         1 V37       0.062200
     37 H131        -0.5270     1.7250     0.4840 hc         1 V37       0.048700
     38 H132         1.1130     1.1080     0.5950 hc         1 V37       0.048700
     39 H141        -0.5530     1.3810    -1.8340 hc         1 V37       0.048700
     40 H142         1.0910     0.7700    -1.7950 hc         1 V37       0.048700
     41 H10         -1.0140    -0.9050    -2.4480 h1         1 V37       0.062200
     42 H151        -2.5330     0.8370    -0.5390 h1         1 V37       0.036200
     43 H152        -3.1460    -0.5970    -1.3580 h1         1 V37       0.036200
     44 H161        -3.7080    -1.6070     0.8770 hc         1 V37       0.053700
     45 H162        -3.2060    -0.1200     1.6610 hc         1 V37       0.053700
     46 H22         -4.4180     2.0740     1.1300 ha         1 V37       0.110500
     47 H18         -5.8910    -1.7610    -0.2200 ha         1 V37       0.110500
     48 H21         -6.6580     3.0740     0.7240 ha         1 V37       0.111000
     49 H20         -8.5170     1.6620    -0.1530 ha         1 V37       0.112000
     50 H19         -8.1280    -0.7560    -0.6240 ha         1 V37       0.111000
@<TRIPOS>BOND
     1     1     2 2   
     2     2     3 1   
     3     2     9 1   
     4     3     4 ar  
     5     3     8 ar  
     6     4     5 ar  
     7     4    26 1   
     8     5     6 ar  
     9     5    28 1   
    10     6     7 ar  
    11     6    29 1   
    12     7     8 ar  
    13     7    30 1   
    14     8    27 1   
    15     9    10 1   
    16    10    11 1   
    17    10    16 1   
    18    10    31 1   
    19    11    12 1   
    20    11    32 1   
    21    11    33 1   
    22    12    13 1   
    23    12    17 1   
    24    12    36 1   
    25    13    14 1   
    26    13    37 1   
    27    13    38 1   
    28    14    15 1   
    29    14    39 1   
    30    14    40 1   
    31    15    16 1   
    32    15    17 1   
    33    15    41 1   
    34    16    34 1   
    35    16    35 1   
    36    17    18 1   
    37    18    19 1   
    38    18    42 1   
    39    18    43 1   
    40    19    20 1   
    41    19    44 1   
    42    19    45 1   
    43    20    21 ar  
    44    20    25 ar  
    45    21    22 ar  
    46    21    46 1   
    47    22    23 ar  
    48    22    48 1   
    49    23    24 ar  
    50    23    49 1   
    51    24    25 ar  
    52    24    50 1   
    53    25    47 1   
@<TRIPOS>SUBSTRUCTURE
     1 V37         1 TEMP              0 ****  ****    0 ROOT
