@<TRIPOS>MOLECULE
V39
   33    34     1     0     0
SMALL
No Charge or Current Charge


@<TRIPOS>ATOM
      1 C1          13.7980   -10.3480   -22.6480 c3         1 V39      -0.024800
      2 C2          14.5750   -10.2010   -21.3350 ca         1 V39      -0.138300
      3 C3          15.7470    -9.4150   -21.2690 ca         1 V39       0.168100
      4 C4          16.4530    -9.2870   -20.0650 ca         1 V39      -0.241000
      5 C5          16.0060    -9.9440   -18.9100 ca         1 V39      -0.037000
      6 C6          14.8500   -10.7350   -18.9620 ca         1 V39      -0.235000
      7 C7          14.1310   -10.8710   -20.1700 ca         1 V39       0.175100
      8 O8          16.2210    -8.7700   -22.3740 oh         1 V39      -0.533100
      9 O10         12.9950   -11.6540   -20.2510 os         1 V39      -0.332100
     10 C11         12.4590   -12.3690   -19.1180 c3         1 V39       0.118300
     11 C12         11.1930   -13.1180   -19.5330 ca         1 V39       0.343300
     12 C13         10.0790   -12.4160   -20.0350 ca         1 V39      -0.145000
     13 C14          8.9260   -13.1250   -20.4060 ca         1 V39      -0.081000
     14 C15          8.9330   -14.5210   -20.2580 ca         1 V39      -0.126000
     15 C16         10.0810   -15.1570   -19.7460 ca         1 V39       0.346300
     16 N17         11.1950   -14.4680   -19.3890 nb         1 V39      -0.664000
     17 C18         10.1160   -16.6840   -19.5780 c3         1 V39       0.108300
     18 O19          9.1880   -17.1530   -18.5750 oh         1 V39      -0.664000
     19 H1          14.1250   -11.2390   -23.1960 hc         1 V39       0.045033
     20 H2          12.7190   -10.4400   -22.4760 hc         1 V39       0.045033
     21 H3          13.9310    -9.4830   -23.3090 hc         1 V39       0.045033
     22 H4          17.3540    -8.6810   -20.0150 ha         1 V39       0.113000
     23 H5          16.5570    -9.8430   -17.9770 ha         1 V39       0.110000
     24 H6          14.5300   -11.2370   -18.0540 ha         1 V39       0.118000
     25 H7          17.0360    -8.2880   -22.1200 ho         1 V39       0.464000
     26 H8          13.1990   -13.0820   -18.7310 h1         1 V39       0.047700
     27 H9          12.2030   -11.6710   -18.3110 h1         1 V39       0.047700
     28 H10         10.1160   -11.3340   -20.1340 ha         1 V39       0.125000
     29 H11          8.0530   -12.6080   -20.7980 ha         1 V39       0.121000
     30 H12          8.0610   -15.1100   -20.5320 ha         1 V39       0.143000
     31 H13          9.8820   -17.1410   -20.5490 h1         1 V39       0.043700
     32 H14         11.1380   -16.9930   -19.3180 h1         1 V39       0.043700
     33 H15          9.2950   -18.1300   -18.5130 ho         1 V39       0.452000
@<TRIPOS>BOND
     1     1     2 1   
     2     1    19 1   
     3     1    20 1   
     4     1    21 1   
     5     2     3 ar  
     6     2     7 ar  
     7     3     4 ar  
     8     3     8 1   
     9     4     5 ar  
    10     4    22 1   
    11     5     6 ar  
    12     5    23 1   
    13     6     7 ar  
    14     6    24 1   
    15     7     9 1   
    16     8    25 1   
    17     9    10 1   
    18    10    11 1   
    19    10    26 1   
    20    10    27 1   
    21    11    12 ar  
    22    11    16 ar  
    23    12    13 ar  
    24    12    28 1   
    25    13    14 ar  
    26    13    29 1   
    27    14    15 ar  
    28    14    30 1   
    29    15    16 ar  
    30    15    17 1   
    31    17    18 1   
    32    17    31 1   
    33    17    32 1   
    34    18    33 1   
@<TRIPOS>SUBSTRUCTURE
     1 V39         1 TEMP              0 ****  ****    0 ROOT
