@<TRIPOS>MOLECULE
V39
   33    34     1     0     0
SMALL
abcg2


@<TRIPOS>ATOM
      1 C1          13.8950   -11.2580   -22.5720 c3         1 V39      -0.024800
      2 C2          14.5570   -10.6870   -21.3510 ca         1 V39      -0.138300
      3 C3          15.7380    -9.9480   -21.4240 ca         1 V39       0.168100
      4 C4          16.3390    -9.4280   -20.2760 ca         1 V39      -0.241000
      5 C5          15.7550    -9.6520   -19.0440 ca         1 V39      -0.037000
      6 C6          14.5830   -10.3860   -18.9300 ca         1 V39      -0.235000
      7 C7          13.9960   -10.9000   -20.0840 ca         1 V39       0.175100
      8 O8          16.2830    -9.7570   -22.6450 oh         1 V39      -0.533100
      9 O10         12.8610   -11.6300   -20.0820 os         1 V39      -0.332100
     10 C11         12.2310   -11.9150   -18.8470 c3         1 V39       0.118300
     11 C12         11.0420   -12.7800   -19.1510 ca         1 V39       0.343300
     12 C13          9.7490   -12.2930   -19.0170 ca         1 V39      -0.145000
     13 C14          8.6950   -13.1400   -19.3220 ca         1 V39      -0.081000
     14 C15          8.9630   -14.4290   -19.7530 ca         1 V39      -0.126000
     15 C16         10.2930   -14.8260   -19.8580 ca         1 V39       0.346300
     16 N17         11.3020   -14.0170   -19.5570 nb         1 V39      -0.664000
     17 C18         10.6980   -16.1990   -20.3190 c3         1 V39       0.108300
     18 O19          9.5630   -16.9850   -20.5630 oh         1 V39      -0.664000
     19 H1          13.9660   -12.3470   -22.5920 hc         1 V39       0.045033
     20 H2          12.8330   -11.0120   -22.6020 hc         1 V39       0.045033
     21 H3          14.3430   -10.8850   -23.4890 hc         1 V39       0.045033
     22 H4          17.2550    -8.8530   -20.3530 ha         1 V39       0.113000
     23 H5          16.2190    -9.2520   -18.1520 ha         1 V39       0.110000
     24 H6          14.1500   -10.5460   -17.9520 ha         1 V39       0.118000
     25 H7          17.0860    -9.2300   -22.5690 ho         1 V39       0.464000
     26 H8          12.9150   -12.4470   -18.1770 h1         1 V39       0.047700
     27 H9          11.9150   -10.9930   -18.3460 h1         1 V39       0.047700
     28 H10          9.5730   -11.2790   -18.6860 ha         1 V39       0.125000
     29 H11          7.6730   -12.7990   -19.2260 ha         1 V39       0.121000
     30 H12          8.1580   -15.1050   -19.9970 ha         1 V39       0.143000
     31 H13         11.3190   -16.0840   -21.2170 h1         1 V39       0.043700
     32 H14         11.3470   -16.6390   -19.5500 h1         1 V39       0.043700
     33 H15          9.8510   -17.8160   -20.9520 ho         1 V39       0.452000
@<TRIPOS>BOND
     1     1     2 1   
     2     1    19 1   
     3     1    20 1   
     4     1    21 1   
     5     2     3 ar  
     6     2     7 ar  
     7     3     4 ar  
     8     3     8 1   
     9     4     5 ar  
    10     4    22 1   
    11     5     6 ar  
    12     5    23 1   
    13     6     7 ar  
    14     6    24 1   
    15     7     9 1   
    16     8    25 1   
    17     9    10 1   
    18    10    11 1   
    19    10    26 1   
    20    10    27 1   
    21    11    12 ar  
    22    11    16 ar  
    23    12    13 ar  
    24    12    28 1   
    25    13    14 ar  
    26    13    29 1   
    27    14    15 ar  
    28    14    30 1   
    29    15    16 ar  
    30    15    17 1   
    31    17    18 1   
    32    17    31 1   
    33    17    32 1   
    34    18    33 1   
@<TRIPOS>SUBSTRUCTURE
     1 V39         1 TEMP              0 ****  ****    0 ROOT
