@<TRIPOS>MOLECULE
V3A
   44    46     1     0     0
SMALL
abcg2


@<TRIPOS>ATOM
      1 PA           1.7340    -2.0270    -0.0030 p5         1 V3A       1.459800
      2 O1A          2.1350    -2.7830    -1.2340 o          1 V3A      -0.871000
      3 O2A          1.9760    -2.6310     1.3480 o          1 V3A      -0.871000
      4 O3A          2.2230    -0.4820    -0.0720 os         1 V3A      -0.700800
      5 O5           0.1260    -1.6380    -0.1300 os         1 V3A      -0.546400
      6 PB           3.6420     0.1070     0.6110 p5         1 V3A       1.488400
      7 O2B          4.6900    -0.9620     0.4940 o          1 V3A      -0.840500
      8 O1B          3.2800     0.6710     1.9560 o          1 V3A      -0.840500
      9 C3B          3.9240     1.4800    -0.5620 c3         1 V3A      -0.376700
     10 F3B          3.8950     0.9420    -1.8730 f          1 V3A      -0.284000
     11 PG           5.5050     2.4700    -0.3660 p5         1 V3A       1.283500
     12 O1G          6.6450     1.5000    -0.6750 o          1 V3A      -0.894833
     13 O2G          5.3540     3.5910    -1.4000 o          1 V3A      -0.894833
     14 O3G          5.4510     2.9520     1.0840 o          1 V3A      -0.894833
     15 C5          -0.7820    -2.7070    -0.2460 c3         1 V3A       0.248600
     16 C4          -2.0960    -2.3240     0.3880 c5         1 V3A       0.151300
     17 O4          -2.6810    -1.2350    -0.3150 os         1 V3A      -0.395000
     18 C1          -4.0860    -1.3090    -0.2590 c5         1 V3A       0.309300
     19 N9          -4.6200    -0.1230     0.3770 na         1 V3A      -0.292300
     20 C9          -5.3630     0.8570    -0.2170 ca         1 V3A       0.139500
     21 N3          -5.8090     0.9100    -1.4700 nb         1 V3A      -0.236000
     22 C2          -6.5070     2.0100    -1.6940 ca         1 V3A       0.079900
     23 N1          -6.7900     2.9980    -0.8490 nb         1 V3A      -0.309000
     24 C6          -6.3340     2.9300     0.4080 ca         1 V3A       0.369900
     25 N6          -6.6180     3.9150     1.2600 nv         1 V3A      -1.095900
     26 C7          -5.5710     1.8050     0.7710 ca         1 V3A      -0.101600
     27 N7          -4.9630     1.4300     1.9420 nc         1 V3A      -0.586100
     28 C8          -4.4110     0.2870     1.6650 cd         1 V3A       0.391700
     29 C10         -4.4330    -2.5990     0.4780 c5         1 V3A      -0.168400
     30 C3          -3.1550    -3.4200     0.3320 c5         1 V3A       0.118300
     31 O3          -2.9310    -4.3610     1.3440 oh         1 V3A      -0.686000
     32 H3           3.0690     2.1640    -0.4860 h1         1 V3A       0.033700
     33 H6          -0.9450    -2.9720    -1.2970 h1         1 V3A       0.008200
     34 H7          -0.4280    -3.6100     0.2660 h1         1 V3A       0.008200
     35 H8          -1.9220    -2.0500     1.4400 h1         1 V3A       0.076700
     36 H9          -4.4860    -1.3030    -1.2750 h2         1 V3A       0.084700
     37 H10         -6.9050     2.1280    -2.6960 h5         1 V3A       0.007100
     38 H11         -7.1520     4.7120     0.9580 hn         1 V3A       0.481000
     39 H12         -6.2740     3.9010     2.2040 hn         1 V3A       0.481000
     40 H13         -3.8350    -0.3030     2.3630 h5         1 V3A       0.068800
     41 H14         -4.6180    -2.4150     1.5400 hc         1 V3A       0.044200
     42 H15         -5.3190    -3.0760     0.0610 hc         1 V3A       0.044200
     43 H16         -3.1310    -3.8910    -0.6610 h1         1 V3A       0.035700
     44 H17         -3.4830    -5.1290     1.1730 ho         1 V3A       0.472000
@<TRIPOS>BOND
     1     1     2 1   
     2     1     3 1   
     3     1     4 1   
     4     1     5 1   
     5     4     6 1   
     6     5    15 1   
     7     6     7 1   
     8     6     8 1   
     9     6     9 1   
    10     9    10 1   
    11     9    11 1   
    12     9    32 1   
    13    11    12 1   
    14    11    13 1   
    15    11    14 1   
    16    15    16 1   
    17    15    33 1   
    18    15    34 1   
    19    16    17 1   
    20    16    30 1   
    21    16    35 1   
    22    17    18 1   
    23    18    19 1   
    24    18    29 1   
    25    18    36 1   
    26    19    20 1   
    27    19    28 1   
    28    20    21 ar  
    29    20    26 ar  
    30    21    22 ar  
    31    22    23 ar  
    32    22    37 1   
    33    23    24 ar  
    34    24    25 1   
    35    24    26 ar  
    36    25    38 1   
    37    25    39 1   
    38    26    27 1   
    39    27    28 2   
    40    28    40 1   
    41    29    30 1   
    42    29    41 1   
    43    29    42 1   
    44    30    31 1   
    45    30    43 1   
    46    31    44 1   
@<TRIPOS>SUBSTRUCTURE
     1 V3A         1 TEMP              0 ****  ****    0 ROOT
