@<TRIPOS>MOLECULE
V3A
   44    46     1     0     0
SMALL
No Charge or Current Charge


@<TRIPOS>ATOM
      1 PA           1.7950    -1.6280     1.6540 p5         1 V3A       1.459800
      2 O1A          2.0000    -3.1060     1.7170 o          1 V3A      -0.871000
      3 O2A          2.1150    -0.9540     2.9470 o          1 V3A      -0.871000
      4 O3A          2.4620    -0.9600     0.3940 os         1 V3A      -0.700800
      5 O5           0.2680    -1.2970     1.2640 os         1 V3A      -0.546400
      6 PB           3.9960    -0.6190     0.5870 p5         1 V3A       1.488400
      7 O2B          4.7510    -1.7520     1.2160 o          1 V3A      -0.840500
      8 O1B          4.2390     0.6740     1.3020 o          1 V3A      -0.840500
      9 C3B          4.4840    -0.6060    -1.1770 c3         1 V3A      -0.376700
     10 F3B          5.8020    -0.9300    -1.4040 f          1 V3A      -0.284000
     11 PG           4.0300     1.0580    -1.7630 p5         1 V3A       1.283500
     12 O1G          5.0630     2.0500    -1.3430 o          1 V3A      -0.894833
     13 O2G          4.0610     0.9850    -3.2550 o          1 V3A      -0.894833
     14 O3G          2.6700     1.4890    -1.3350 o          1 V3A      -0.894833
     15 C5          -0.3510    -2.0340     0.2020 c3         1 V3A       0.248600
     16 C4          -1.8640    -1.6990     0.1800 c5         1 V3A       0.151300
     17 O4          -2.0970    -0.3590    -0.3050 os         1 V3A      -0.395000
     18 C1          -3.4930    -0.2490    -0.6600 c5         1 V3A       0.309300
     19 N9          -4.1960     0.5770     0.3160 na         1 V3A      -0.292300
     20 C9          -5.4440     1.1320     0.2100 ca         1 V3A       0.139500
     21 N3          -6.3450     1.0870    -0.7940 nb         1 V3A      -0.236000
     22 C2          -7.5030     1.7550    -0.5810 ca         1 V3A       0.079900
     23 N1          -7.8390     2.4560     0.5280 nb         1 V3A      -0.309000
     24 C6          -6.9240     2.4810     1.5110 ca         1 V3A       0.369900
     25 N6          -7.2640     3.1900     2.6220 nv         1 V3A      -1.095900
     26 C7          -5.6860     1.8150     1.3770 ca         1 V3A      -0.101600
     27 N7          -4.6230     1.7370     2.2700 nc         1 V3A      -0.586100
     28 C8          -3.7430     0.9800     1.5870 cd         1 V3A       0.391700
     29 C10         -4.0150    -1.7170    -0.7810 c5         1 V3A      -0.168400
     30 C3          -2.7040    -2.5370    -0.8190 c5         1 V3A       0.118300
     31 O3          -2.9110    -3.8880    -0.4040 oh         1 V3A      -0.686000
     32 H3           3.8550    -1.3330    -1.6990 h1         1 V3A       0.033700
     33 H6           0.0950    -1.7780    -0.7680 h1         1 V3A       0.008200
     34 H7          -0.2370    -3.1140     0.3600 h1         1 V3A       0.008200
     35 H8          -2.2650    -1.7900     1.1990 h1         1 V3A       0.076700
     36 H9          -3.5800     0.2740    -1.6210 h2         1 V3A       0.084700
     37 H10         -8.2370     1.7270    -1.3840 h5         1 V3A       0.007100
     38 H11         -8.0270     3.8590     2.5540 hn         1 V3A       0.481000
     39 H12         -6.5230     3.3970     3.2890 hn         1 V3A       0.481000
     40 H13         -2.7650     0.6830     1.9510 h5         1 V3A       0.068800
     41 H14         -4.6350    -1.9860     0.0830 hc         1 V3A       0.044200
     42 H15         -4.6270    -1.8620    -1.6780 hc         1 V3A       0.044200
     43 H16         -2.2490    -2.5060    -1.8200 h1         1 V3A       0.035700
     44 H17         -3.5380    -4.2920    -1.0470 ho         1 V3A       0.472000
@<TRIPOS>BOND
     1     1     2 1   
     2     1     3 1   
     3     1     4 1   
     4     1     5 1   
     5     4     6 1   
     6     5    15 1   
     7     6     7 1   
     8     6     8 1   
     9     6     9 1   
    10     9    10 1   
    11     9    11 1   
    12     9    32 1   
    13    11    12 1   
    14    11    13 1   
    15    11    14 1   
    16    15    16 1   
    17    15    33 1   
    18    15    34 1   
    19    16    17 1   
    20    16    30 1   
    21    16    35 1   
    22    17    18 1   
    23    18    19 1   
    24    18    29 1   
    25    18    36 1   
    26    19    20 1   
    27    19    28 1   
    28    20    21 ar  
    29    20    26 ar  
    30    21    22 ar  
    31    22    23 ar  
    32    22    37 1   
    33    23    24 ar  
    34    24    25 1   
    35    24    26 ar  
    36    25    38 1   
    37    25    39 1   
    38    26    27 1   
    39    27    28 2   
    40    28    40 1   
    41    29    30 1   
    42    29    41 1   
    43    29    42 1   
    44    30    31 1   
    45    30    43 1   
    46    31    44 1   
@<TRIPOS>SUBSTRUCTURE
     1 V3A         1 TEMP              0 ****  ****    0 ROOT
