@<TRIPOS>MOLECULE
V3B
   40    41     1     0     0
SMALL
bcc


@<TRIPOS>ATOM
      1 C01        -11.9830    14.0290     0.0970 c3         1 V3B       0.089300
      2 C03        -12.8380    16.1530     0.8500 c          1 V3B       0.784100
      3 C05        -13.7810    18.2470     1.5800 c6         1 V3B       0.090000
      4 C06        -14.0420    19.6500     1.0670 c6         1 V3B       0.085000
      5 C08        -15.5770    20.8060    -0.3820 c          1 V3B       0.675700
      6 C09        -16.6850    20.7750    -1.3900 ca         1 V3B      -0.117600
      7 C10        -16.5850    21.5900    -2.5180 ca         1 V3B      -0.109500
      8 C11        -17.6200    21.6420    -3.4320 ca         1 V3B      -0.085500
      9 C12        -18.7820    20.9020    -3.2100 ca         1 V3B      -0.186600
     10 C13        -18.8910    20.1100    -2.0720 ca         1 V3B      -0.085500
     11 C14        -17.8430    20.0380    -1.1680 ca         1 V3B      -0.109500
     12 C15        -19.9070    20.9400    -4.1610 c          1 V3B       0.582500
     13 C17        -15.2380    18.3640    -0.6710 c6         1 V3B       0.085000
     14 C18        -13.8980    17.6610    -0.8100 c6         1 V3B       0.090000
     15 C20        -11.4440    16.0270    -1.1900 c3         1 V3B       0.089300
     16 N02        -12.2610    15.4260    -0.1540 n          1 V3B      -0.488800
     17 N04        -13.3240    17.3870     0.5020 n          1 V3B      -0.490800
     18 N07        -15.0590    19.6320     0.0220 n          1 V3B      -0.475800
     19 O16        -15.1980    21.8820     0.0600 o          1 V3B      -0.585100
     20 O19        -12.9290    15.7300     1.9970 o          1 V3B      -0.624100
     21 H1         -12.7780    13.5710     0.6790 h1         1 V3B       0.039533
     22 H2         -11.9240    13.5070    -0.8580 h1         1 V3B       0.039533
     23 H3         -11.0350    13.8770     0.6230 h1         1 V3B       0.039533
     24 H4         -14.6850    17.8570     2.0600 h1         1 V3B       0.058950
     25 H5         -13.0140    18.3130     2.3510 h1         1 V3B       0.058950
     26 H6         -13.1130    20.0930     0.6950 h1         1 V3B       0.061450
     27 H7         -14.3830    20.2640     1.9000 h1         1 V3B       0.061450
     28 H8         -15.6900    22.1750    -2.6850 ha         1 V3B       0.146500
     29 H9         -17.5310    22.2610    -4.3140 ha         1 V3B       0.146000
     30 H10        -19.7970    19.5440    -1.8920 ha         1 V3B       0.146000
     31 H11        -17.9350    19.4160    -0.2860 ha         1 V3B       0.146500
     32 H12        -20.7730    20.3190    -3.8690 h4         1 V3B      -0.008800
     33 H15        -15.6330    18.5360    -1.6700 h1         1 V3B       0.061450
     34 H16        -15.9490    17.7230    -0.1430 h1         1 V3B       0.061450
     35 H17        -14.0570    16.7260    -1.3470 h1         1 V3B       0.058950
     36 H18        -13.2370    18.2820    -1.4210 h1         1 V3B       0.058950
     37 H19        -11.3690    17.1040    -1.0640 h1         1 V3B       0.039533
     38 H20        -10.4290    15.6280    -1.1330 h1         1 V3B       0.039533
     39 H21        -11.8310    15.8200    -2.1900 h1         1 V3B       0.039533
     40 O1         -19.9170    21.5830    -5.1830 o          1 V3B      -0.509100
@<TRIPOS>BOND
     1     1    16 1   
     2     1    21 1   
     3     1    22 1   
     4     1    23 1   
     5     2    16 1   
     6     2    17 1   
     7     2    20 2   
     8     3     4 1   
     9     3    17 1   
    10     3    24 1   
    11     3    25 1   
    12     4    18 1   
    13     4    26 1   
    14     4    27 1   
    15     5     6 1   
    16     5    18 1   
    17     5    19 2   
    18     6     7 ar  
    19     6    11 ar  
    20     7     8 ar  
    21     7    28 1   
    22     8     9 ar  
    23     8    29 1   
    24     9    10 ar  
    25     9    12 1   
    26    10    11 ar  
    27    10    30 1   
    28    11    31 1   
    29    12    32 1   
    30    12    40 2   
    31    13    14 1   
    32    13    18 1   
    33    13    33 1   
    34    13    34 1   
    35    14    17 1   
    36    14    35 1   
    37    14    36 1   
    38    15    16 1   
    39    15    37 1   
    40    15    38 1   
    41    15    39 1   
@<TRIPOS>SUBSTRUCTURE
     1 V3B         1 TEMP              0 ****  ****    0 ROOT
