@<TRIPOS>MOLECULE
V3B
   40    41     1     0     0
SMALL
No Charge or Current Charge


@<TRIPOS>ATOM
      1 C01        -11.6190    13.8880     0.3630 c3         1 V3B       0.089300
      2 C03        -12.7210    16.0540     0.9590 c          1 V3B       0.650100
      3 C05        -13.8040    18.2220     1.6540 c6         1 V3B       0.090000
      4 C06        -14.0990    19.6440     1.1120 c6         1 V3B       0.085000
      5 C08        -15.5370    20.9110    -0.5210 c          1 V3B       0.608700
      6 C09        -16.7130    20.9300    -1.4790 ca         1 V3B      -0.117600
      7 C10        -16.7920    21.9450    -2.4580 ca         1 V3B      -0.091500
      8 C11        -17.8750    22.0020    -3.3510 ca         1 V3B      -0.067500
      9 C12        -18.9150    21.0520    -3.2730 ca         1 V3B      -0.186600
     10 C13        -18.8570    20.0540    -2.2800 ca         1 V3B      -0.067500
     11 C14        -17.7720    19.9970    -1.3890 ca         1 V3B      -0.091500
     12 C15        -20.0840    21.1000    -4.2210 c          1 V3B       0.582500
     13 C17        -15.2010    18.4010    -0.7680 c6         1 V3B       0.085000
     14 C18        -13.9050    17.5460    -0.7640 c6         1 V3B       0.090000
     15 C20        -11.5530    15.7760    -1.2890 c3         1 V3B       0.089300
     16 N02        -12.0860    15.2410    -0.0140 n          1 V3B      -0.421800
     17 N04        -13.3670    17.2630     0.6000 n          1 V3B      -0.423800
     18 N07        -15.0890    19.6750     0.0000 n          1 V3B      -0.408800
     19 O16        -15.0280    21.9610    -0.1450 o          1 V3B      -0.585100
     20 O19        -12.7120    15.7080     2.1330 o          1 V3B      -0.624100
     21 H1         -12.4010    13.3660     0.9290 h1         1 V3B       0.039533
     22 H2         -11.3890    13.3000    -0.5350 h1         1 V3B       0.039533
     23 H3         -10.7160    13.9670     0.9820 h1         1 V3B       0.039533
     24 H4         -14.7080    17.8270     2.1380 h1         1 V3B       0.058950
     25 H5         -13.0250    18.2960     2.4260 h1         1 V3B       0.058950
     26 H6         -13.1580    20.0900     0.7590 h1         1 V3B       0.061450
     27 H7         -14.4650    20.2690     1.9380 h1         1 V3B       0.061450
     28 H8         -16.0010    22.6880    -2.5350 ha         1 V3B       0.128500
     29 H9         -17.9030    22.7880    -4.1030 ha         1 V3B       0.128000
     30 H10        -19.6590    19.3220    -2.1910 ha         1 V3B       0.128000
     31 H11        -17.7760    19.2390    -0.6100 ha         1 V3B       0.128500
     32 H12        -20.8570    20.3130    -4.0790 h4         1 V3B      -0.008800
     33 H15        -15.4670    18.6120    -1.8130 h1         1 V3B       0.061450
     34 H16        -16.0130    17.8000    -0.3360 h1         1 V3B       0.061450
     35 H17        -14.1280    16.6000    -1.2760 h1         1 V3B       0.058950
     36 H18        -13.1380    18.0750    -1.3480 h1         1 V3B       0.058950
     37 H19        -11.2760    16.8320    -1.1710 h1         1 V3B       0.039533
     38 H20        -10.6510    15.2230    -1.5820 h1         1 V3B       0.039533
     39 H21        -12.2990    15.6700    -2.0860 h1         1 V3B       0.039533
     40 O1         -20.2030    21.9420    -5.1060 o          1 V3B      -0.509100
@<TRIPOS>BOND
     1     1    16 1   
     2     1    21 1   
     3     1    22 1   
     4     1    23 1   
     5     2    16 1   
     6     2    17 1   
     7     2    20 2   
     8     3     4 1   
     9     3    17 1   
    10     3    24 1   
    11     3    25 1   
    12     4    18 1   
    13     4    26 1   
    14     4    27 1   
    15     5     6 1   
    16     5    18 1   
    17     5    19 2   
    18     6     7 ar  
    19     6    11 ar  
    20     7     8 ar  
    21     7    28 1   
    22     8     9 ar  
    23     8    29 1   
    24     9    10 ar  
    25     9    12 1   
    26    10    11 ar  
    27    10    30 1   
    28    11    31 1   
    29    12    32 1   
    30    12    40 2   
    31    13    14 1   
    32    13    18 1   
    33    13    33 1   
    34    13    34 1   
    35    14    17 1   
    36    14    35 1   
    37    14    36 1   
    38    15    16 1   
    39    15    37 1   
    40    15    38 1   
    41    15    39 1   
@<TRIPOS>SUBSTRUCTURE
     1 V3B         1 TEMP              0 ****  ****    0 ROOT
