@<TRIPOS>MOLECULE
V3C
   22    22     1     0     0
SMALL
abcg2


@<TRIPOS>ATOM
      1 C           25.0610    -5.3010     4.2690 c          1 V3C       0.725000
      2 CA          26.1270    -4.8460     3.2470 c5         1 V3C       0.031500
      3 CB          27.5120    -5.3460     3.6860 c5         1 V3C      -0.078400
      4 CG          28.0140    -4.2040     4.5640 c5         1 V3C      -0.089700
      5 CD          27.5000    -2.9740     3.8060 c5         1 V3C       0.174800
      6 C53         29.5160    -4.2020     4.8050 c3         1 V3C      -0.065400
      7 C56         29.9980    -3.0270     5.6460 c3         1 V3C      -0.084100
      8 N           26.2680    -3.3930     3.1320 n7         1 V3C      -0.828400
      9 O           24.6470    -4.4760     5.1040 o          1 V3C      -0.728500
     10 OXT         24.7300    -6.5040     4.1790 o          1 V3C      -0.728500
     11 HA          25.8570    -5.2680     2.2740 h1         1 V3C       0.029700
     12 HB2         27.4840    -6.3080     4.2000 hc         1 V3C       0.028200
     13 HB3         28.1720    -5.4560     2.8180 hc         1 V3C       0.028200
     14 HG2         27.5050    -4.2600     5.5330 hc         1 V3C       0.082700
     15 HD3         28.2620    -2.6500     3.0850 h1         1 V3C       0.009200
     16 HD2         27.3280    -2.1290     4.4790 h1         1 V3C       0.009200
     17 H162        29.7990    -5.1380     5.2970 hc         1 V3C       0.025200
     18 H161        30.0340    -4.1990     3.8400 hc         1 V3C       0.025200
     19 H170        31.0730    -3.0830     5.8240 hc         1 V3C       0.022367
     20 H171        29.7990    -2.0730     5.1560 hc         1 V3C       0.022367
     21 H169        29.5030    -3.0080     6.6180 hc         1 V3C       0.022367
     22 H           26.3100    -3.1310     2.1590 hn         1 V3C       0.367000
@<TRIPOS>BOND
     1     1     2 1   
     2     1     9 1   
     3     1    10 1   
     4     2     3 1   
     5     2     8 1   
     6     2    11 1   
     7     3     4 1   
     8     3    12 1   
     9     3    13 1   
    10     4     5 1   
    11     4     6 1   
    12     4    14 1   
    13     5     8 1   
    14     5    15 1   
    15     5    16 1   
    16     6     7 1   
    17     6    17 1   
    18     6    18 1   
    19     7    19 1   
    20     7    20 1   
    21     7    21 1   
    22     8    22 1   
@<TRIPOS>SUBSTRUCTURE
     1 V3C         1 TEMP              0 ****  ****    0 ROOT
