@<TRIPOS>MOLECULE
V3C
   22    22     1     0     0
SMALL
No Charge or Current Charge


@<TRIPOS>ATOM
      1 C           24.9120    -5.6140     3.9450 c          1 V3C       0.725000
      2 CA          26.1560    -4.8650     3.2870 c5         1 V3C       0.031500
      3 CB          27.5070    -5.3590     3.9140 c5         1 V3C      -0.078400
      4 CG          28.0470    -4.0930     4.6370 c5         1 V3C      -0.089700
      5 CD          27.5950    -3.0060     3.6320 c5         1 V3C       0.174800
      6 C53         29.5650    -4.1310     4.9430 c3         1 V3C      -0.065400
      7 C56         30.1020    -2.8720     5.6540 c3         1 V3C      -0.084100
      8 N           26.1800    -3.3590     3.4210 n7         1 V3C      -0.828400
      9 O           24.7830    -5.6450     5.1640 o          1 V3C      -0.728500
     10 OXT         24.0890    -6.1410     3.2060 o          1 V3C      -0.728500
     11 HA          26.1550    -5.1270     2.2200 h1         1 V3C       0.029700
     12 HB2         27.3860    -6.2080     4.5970 hc         1 V3C       0.028200
     13 HB3         28.1940    -5.6870     3.1250 hc         1 V3C       0.028200
     14 HG2         27.5310    -3.9560     5.5950 hc         1 V3C       0.082700
     15 HD3         28.1570    -3.0710     2.6900 h1         1 V3C       0.009200
     16 HD2         27.6990    -1.9870     4.0310 h1         1 V3C       0.009200
     17 H162        29.7850    -5.0010     5.5730 hc         1 V3C       0.025200
     18 H161        30.1290    -4.2730     4.0130 hc         1 V3C       0.025200
     19 H170        31.1710    -2.9850     5.8710 hc         1 V3C       0.022367
     20 H171        29.9740    -1.9830     5.0250 hc         1 V3C       0.022367
     21 H169        29.5750    -2.7070     6.6010 hc         1 V3C       0.022367
     22 H           25.8100    -2.9060     2.5770 hn         1 V3C       0.367000
@<TRIPOS>BOND
     1     1     2 1   
     2     1     9 1   
     3     1    10 1   
     4     2     3 1   
     5     2     8 1   
     6     2    11 1   
     7     3     4 1   
     8     3    12 1   
     9     3    13 1   
    10     4     5 1   
    11     4     6 1   
    12     4    14 1   
    13     5     8 1   
    14     5    15 1   
    15     5    16 1   
    16     6     7 1   
    17     6    17 1   
    18     6    18 1   
    19     7    19 1   
    20     7    20 1   
    21     7    21 1   
    22     8    22 1   
@<TRIPOS>SUBSTRUCTURE
     1 V3C         1 TEMP              0 ****  ****    0 ROOT
