@<TRIPOS>MOLECULE
V3E
   27    27     1     0     0
SMALL
abcg2


@<TRIPOS>ATOM
      1 N10        -25.0630   -32.1980     9.6420 n8         1 V3E      -0.994200
      2 C11        -25.9390   -33.1250    10.3480 c3         1 V3E       0.113500
      3 C12        -26.7230   -32.3790    11.4530 c3         1 V3E      -0.010100
      4 C14        -25.4850   -30.4410    12.5040 ca         1 V3E      -0.068000
      5 C15        -24.6250   -29.8980    13.4540 ca         1 V3E      -0.146000
      6 C16        -24.0800   -30.7240    14.4310 ca         1 V3E      -0.069000
      7 C17        -24.3940   -32.0780    14.4530 ca         1 V3E      -0.201000
      8 C18        -25.2540   -32.6100    13.4950 ca         1 V3E       0.130100
      9 C20        -26.9120   -33.7670     9.3730 c          1 V3E       0.582100
     10 C22        -28.5930   -35.4230     9.1690 c3         1 V3E       0.152900
     11 O23        -27.0500   -33.4660     8.2100 o          1 V3E      -0.468000
     12 C13        -25.8140   -31.7950    12.5000 ca         1 V3E      -0.118300
     13 O21        -27.6100   -34.7390     9.9720 os         1 V3E      -0.452100
     14 H1         -24.3820   -31.8270    10.2960 hn         1 V3E       0.408500
     15 H2         -24.5400   -32.6880     8.9240 hn         1 V3E       0.408500
     16 H4         -25.4000   -33.9530    10.8240 h1         1 V3E       0.053700
     17 H5         -27.2960   -31.5780    10.9830 hc         1 V3E       0.068700
     18 H6         -27.4230   -33.0760    11.9100 hc         1 V3E       0.068700
     19 H7         -25.9150   -29.8030    11.7410 ha         1 V3E       0.124000
     20 H8         -24.3870   -28.8430    13.4340 ha         1 V3E       0.119000
     21 H9         -23.4110   -30.3200    15.1800 ha         1 V3E       0.114000
     22 H10        -23.9770   -32.7290    15.2130 ha         1 V3E       0.113000
     23 H11        -29.0500   -36.1540     9.8290 h1         1 V3E       0.049033
     24 H12        -29.3380   -34.7170     8.8050 h1         1 V3E       0.049033
     25 H13        -28.1120   -35.9180     8.3260 h1         1 V3E       0.049033
     26 H14        -25.1580   -34.3900    14.2200 ho         1 V3E       0.462000
     27 O19        -25.5890   -33.9350    13.4830 oh         1 V3E      -0.539100
@<TRIPOS>BOND
     1     1     2 1   
     2     1    14 1   
     3     1    15 1   
     4     2     3 1   
     5     2     9 1   
     6     2    16 1   
     7     3    12 1   
     8     3    17 1   
     9     3    18 1   
    10     4     5 ar  
    11     4    12 ar  
    12     4    19 1   
    13     5     6 ar  
    14     5    20 1   
    15     6     7 ar  
    16     6    21 1   
    17     7     8 ar  
    18     7    22 1   
    19     8    12 ar  
    20     8    27 1   
    21     9    11 2   
    22     9    13 1   
    23    10    13 1   
    24    10    23 1   
    25    10    24 1   
    26    10    25 1   
    27    26    27 1   
@<TRIPOS>SUBSTRUCTURE
     1 V3E         1 TEMP              0 ****  ****    0 ROOT
