@<TRIPOS>MOLECULE
V3E
   27    27     1     0     0
SMALL
No Charge or Current Charge


@<TRIPOS>ATOM
      1 N10        -24.9530   -32.1880     9.6480 n8         1 V3E      -0.994200
      2 C11        -25.9950   -33.0720    10.2880 c3         1 V3E       0.113500
      3 C12        -26.7280   -32.3160    11.4280 c3         1 V3E      -0.010100
      4 C14        -25.4650   -30.3930    12.5150 ca         1 V3E      -0.068000
      5 C15        -24.6050   -29.8690    13.4950 ca         1 V3E      -0.146000
      6 C16        -24.0590   -30.7100    14.4770 ca         1 V3E      -0.069000
      7 C17        -24.3750   -32.0790    14.4780 ca         1 V3E      -0.201000
      8 C18        -25.2340   -32.6080    13.5000 ca         1 V3E       0.130100
      9 C20        -27.0300   -33.7450     9.3140 c          1 V3E       0.582100
     10 C22        -28.6420   -35.5340     9.1300 c3         1 V3E       0.152900
     11 O23        -27.1890   -33.4220     8.1410 o          1 V3E      -0.468000
     12 C13        -25.7860   -31.7670    12.5060 ca         1 V3E      -0.118300
     13 O21        -27.6790   -34.8000     9.9100 os         1 V3E      -0.452100
     14 H1         -24.3020   -31.8680    10.3750 hn         1 V3E       0.408500
     15 H2         -24.3640   -32.7520     9.0220 hn         1 V3E       0.408500
     16 H4         -25.4550   -33.9080    10.7540 h1         1 V3E       0.053700
     17 H5         -27.3200   -31.5040    10.9880 hc         1 V3E       0.068700
     18 H6         -27.4590   -32.9890    11.8920 hc         1 V3E       0.068700
     19 H7         -25.8810   -29.7300    11.7590 ha         1 V3E       0.124000
     20 H8         -24.3630   -28.8080    13.4930 ha         1 V3E       0.119000
     21 H9         -23.3940   -30.3030    15.2350 ha         1 V3E       0.114000
     22 H10        -23.9480   -32.7230    15.2430 ha         1 V3E       0.113000
     23 H11        -29.0830   -36.3400     9.7280 h1         1 V3E       0.049033
     24 H12        -29.4540   -34.8770     8.7920 h1         1 V3E       0.049033
     25 H13        -28.1690   -35.9850     8.2470 h1         1 V3E       0.049033
     26 H14        -25.0610   -34.3430    14.2900 ho         1 V3E       0.462000
     27 O19        -25.5270   -33.9400    13.5270 oh         1 V3E      -0.539100
@<TRIPOS>BOND
     1     1     2 1   
     2     1    14 1   
     3     1    15 1   
     4     2     3 1   
     5     2     9 1   
     6     2    16 1   
     7     3    12 1   
     8     3    17 1   
     9     3    18 1   
    10     4     5 ar  
    11     4    12 ar  
    12     4    19 1   
    13     5     6 ar  
    14     5    20 1   
    15     6     7 ar  
    16     6    21 1   
    17     7     8 ar  
    18     7    22 1   
    19     8    12 ar  
    20     8    27 1   
    21     9    11 2   
    22     9    13 1   
    23    10    13 1   
    24    10    23 1   
    25    10    24 1   
    26    10    25 1   
    27    26    27 1   
@<TRIPOS>SUBSTRUCTURE
     1 V3E         1 TEMP              0 ****  ****    0 ROOT
