@<TRIPOS>MOLECULE
V3F
   24    25     1     0     0
SMALL
abcg2


@<TRIPOS>ATOM
      1 N1          21.1560     8.6360   -37.2900 ns         1 V3F      -0.524900
      2 C7          24.1260     6.7510   -33.6230 ca         1 V3F      -0.098000
      3 C8          23.2850     5.7040   -33.9870 ca         1 V3F      -0.110500
      4 C9          22.3220     5.8870   -34.9720 ca         1 V3F      -0.088500
      5 O1          19.8260    10.5250   -37.4470 o          1 V3F      -0.547000
      6 C1          21.1050     7.3190   -36.6730 c5         1 V3F       0.091700
      7 C5          23.0200     8.1720   -35.2290 ca         1 V3F      -0.088500
      8 C6          23.9890     7.9850   -34.2480 ca         1 V3F      -0.110500
      9 C4          22.1810     7.1250   -35.6060 ca         1 V3F      -0.103300
     10 C3          20.0670     9.3970   -37.0560 c          1 V3F       0.619000
     11 C2          19.7140     7.3800   -35.9960 c          1 V3F       0.567000
     12 N           19.2180     8.6250   -36.2480 ns         1 V3F      -0.483500
     13 O           19.1730     6.4920   -35.3740 o          1 V3F      -0.501000
     14 C           21.1190     6.2140   -37.7350 c3         1 V3F      -0.090100
     15 H1          21.9050     8.9470   -37.8870 hn         1 V3F       0.351500
     16 H3          23.3780     4.7390   -33.5050 ha         1 V3F       0.116500
     17 H4          21.6740     5.0640   -35.2370 ha         1 V3F       0.120500
     18 H5          22.9210     9.1400   -35.6980 ha         1 V3F       0.120500
     19 H6          24.6360     8.8090   -33.9730 ha         1 V3F       0.116500
     20 H7          18.3140     8.9540   -35.9380 hn         1 V3F       0.356500
     21 H8          20.9620     5.2390   -37.2770 hc         1 V3F       0.055700
     22 H9          20.3290     6.3890   -38.4650 hc         1 V3F       0.055700
     23 H10         22.0830     6.2140   -38.2440 hc         1 V3F       0.055700
     24 H2          24.8790     6.6050   -32.8590 ha         1 V3F       0.116000
@<TRIPOS>BOND
     1     1     6 1   
     2     1    10 1   
     3     1    15 1   
     4     2     3 ar  
     5     2     8 ar  
     6     2    24 1   
     7     3     4 ar  
     8     3    16 1   
     9     4     9 ar  
    10     4    17 1   
    11     5    10 2   
    12     6     9 1   
    13     6    11 1   
    14     6    14 1   
    15     7     8 ar  
    16     7     9 ar  
    17     7    18 1   
    18     8    19 1   
    19    10    12 1   
    20    11    12 1   
    21    11    13 2   
    22    12    20 1   
    23    14    21 1   
    24    14    22 1   
    25    14    23 1   
@<TRIPOS>SUBSTRUCTURE
     1 V3F         1 TEMP              0 ****  ****    0 ROOT
