@<TRIPOS>MOLECULE
V3F
   24    25     1     0     0
SMALL
No Charge or Current Charge


@<TRIPOS>ATOM
      1 N1          21.1060     8.6920   -37.2780 ns         1 V3F      -0.524900
      2 C7          24.1720     6.7180   -33.5990 ca         1 V3F      -0.098000
      3 C8          23.2530     5.7030   -33.9040 ca         1 V3F      -0.110500
      4 C9          22.2710     5.9110   -34.8880 ca         1 V3F      -0.088500
      5 O1          19.6670    10.4830   -37.4460 o          1 V3F      -0.547000
      6 C1          21.1010     7.3420   -36.6600 c5         1 V3F       0.091700
      7 C5          23.1220     8.1520   -35.2640 ca         1 V3F      -0.088500
      8 C6          24.1040     7.9420   -34.2800 ca         1 V3F      -0.110500
      9 C4          22.1900     7.1370   -35.5870 ca         1 V3F      -0.103300
     10 C3          19.9480     9.3680   -37.0550 c          1 V3F       0.619000
     11 C2          19.6710     7.3440   -35.9980 c          1 V3F       0.567000
     12 N           19.1810     8.5590   -36.3220 ns         1 V3F      -0.483500
     13 O           19.0830     6.4990   -35.3390 o          1 V3F      -0.501000
     14 C           21.1640     6.2650   -37.7710 c3         1 V3F      -0.090100
     15 H1          21.8360     9.1120   -37.8420 hn         1 V3F       0.351500
     16 H3          23.2990     4.7520   -33.3760 ha         1 V3F       0.116500
     17 H4          21.5660     5.1100   -35.1000 ha         1 V3F       0.120500
     18 H5          23.0990     9.1140   -35.7700 ha         1 V3F       0.120500
     19 H6          24.8130     8.7330   -34.0450 ha         1 V3F       0.116500
     20 H7          18.2620     8.8460   -36.0270 hn         1 V3F       0.356500
     21 H8          20.9990     5.2580   -37.3720 hc         1 V3F       0.055700
     22 H9          20.4000     6.4420   -38.5380 hc         1 V3F       0.055700
     23 H10         22.1420     6.2720   -38.2670 hc         1 V3F       0.055700
     24 H2          24.9320     6.5570   -32.8380 ha         1 V3F       0.116000
@<TRIPOS>BOND
     1     1     6 1   
     2     1    10 1   
     3     1    15 1   
     4     2     3 ar  
     5     2     8 ar  
     6     2    24 1   
     7     3     4 ar  
     8     3    16 1   
     9     4     9 ar  
    10     4    17 1   
    11     5    10 2   
    12     6     9 1   
    13     6    11 1   
    14     6    14 1   
    15     7     8 ar  
    16     7     9 ar  
    17     7    18 1   
    18     8    19 1   
    19    10    12 1   
    20    11    12 1   
    21    11    13 2   
    22    12    20 1   
    23    14    21 1   
    24    14    22 1   
    25    14    23 1   
@<TRIPOS>SUBSTRUCTURE
     1 V3F         1 TEMP              0 ****  ****    0 ROOT
