@<TRIPOS>MOLECULE
V3J
   28    30     1     0     0
SMALL
abcg2


@<TRIPOS>ATOM
      1 C10         10.6040    20.8180    -1.0490 c6         1 V3J       0.059500
      2 C13          9.3580    18.2860    -1.2170 c6         1 V3J       0.131600
      3 C01         11.5650    22.5360     1.3970 ca         1 V3J      -0.063000
      4 C02         11.7980    23.8550     1.7210 ca         1 V3J      -0.079000
      5 C03         10.7490    24.5770     2.2870 ca         1 V3J      -0.189000
      6 C04          9.5120    23.9690     2.5330 ca         1 V3J       0.008400
      7 C05          9.2940    22.6260     2.2240 ca         1 V3J       0.014000
      8 C06         10.3210    21.9190     1.6360 ca         1 V3J      -0.153600
      9 C07         10.1250    20.4570     1.3710 c          1 V3J       0.619700
     10 O08          9.7240    19.7380     2.2760 o          1 V3J      -0.586100
     11 N09         10.4360    20.0000     0.1430 n          1 V3J      -0.408800
     12 C11          9.5530    20.4360    -2.0810 c6         1 V3J       0.131600
     13 O12          9.5790    19.0590    -2.3750 os         1 V3J      -0.442000
     14 C14         10.4040    18.5760    -0.1540 c6         1 V3J       0.059500
     15 N15          8.5900    24.8160     3.0970 nc         1 V3J      -0.147400
     16 N16          9.0080    25.9780     3.2950 nd         1 V3J      -0.099500
     17 S17         10.6310    26.2000     2.8050 ss         1 V3J       0.242500
     18 H1          11.6090    20.6690    -1.4540 h1         1 V3J       0.066200
     19 H2          10.4900    21.8740    -0.8180 h1         1 V3J       0.066200
     20 H3           8.3560    18.4770    -0.8090 h1         1 V3J       0.056200
     21 H4           9.4090    17.2360    -1.5080 h1         1 V3J       0.056200
     22 H6          12.7630    24.3060     1.5380 ha         1 V3J       0.134000
     23 H7           8.3370    22.1690     2.4370 ha         1 V3J       0.152000
     24 H8           9.7430    20.9760    -3.0100 h1         1 V3J       0.056200
     25 H9           8.5630    20.7340    -1.7090 h1         1 V3J       0.056200
     26 H10         10.1870    18.0120     0.7500 h1         1 V3J       0.066200
     27 H11         11.3930    18.2760    -0.5130 h1         1 V3J       0.066200
     28 H5          12.3690    21.9610     0.9550 ha         1 V3J       0.126000
@<TRIPOS>BOND
     1     1    11 1   
     2     1    12 1   
     3     1    18 1   
     4     1    19 1   
     5     2    13 1   
     6     2    14 1   
     7     2    20 1   
     8     2    21 1   
     9     3     4 ar  
    10     3     8 ar  
    11     3    28 1   
    12     4     5 ar  
    13     4    22 1   
    14     5     6 ar  
    15     5    17 1   
    16     6     7 ar  
    17     6    15 1   
    18     7     8 ar  
    19     7    23 1   
    20     8     9 1   
    21     9    10 2   
    22     9    11 1   
    23    11    14 1   
    24    12    13 1   
    25    12    24 1   
    26    12    25 1   
    27    14    26 1   
    28    14    27 1   
    29    15    16 2   
    30    16    17 1   
@<TRIPOS>SUBSTRUCTURE
     1 V3J         1 TEMP              0 ****  ****    0 ROOT
