@<TRIPOS>MOLECULE
V3J
   28    30     1     0     0
SMALL
No Charge or Current Charge


@<TRIPOS>ATOM
      1 C10         10.6180    20.7850    -1.1460 c6         1 V3J       0.059500
      2 C13          9.4490    18.1300    -1.2240 c6         1 V3J       0.131600
      3 C01         11.4350    22.6090     1.2750 ca         1 V3J      -0.063000
      4 C02         11.7060    23.9410     1.6420 ca         1 V3J      -0.079000
      5 C03         10.7380    24.6340     2.3800 ca         1 V3J      -0.189000
      6 C04          9.5530    24.0620     2.7640 ca         1 V3J       0.008400
      7 C05          9.2690    22.7340     2.4060 ca         1 V3J       0.014000
      8 C06         10.2040    21.9970     1.6360 ca         1 V3J      -0.153600
      9 C07          9.8900    20.5620     1.2810 c          1 V3J       0.619700
     10 O08          9.2070    19.8760     2.0310 o          1 V3J      -0.586100
     11 N09         10.4790    20.0000     0.1220 n          1 V3J      -0.408800
     12 C11          9.6160    20.3110    -2.2340 c6         1 V3J       0.131600
     13 O12          9.7200    18.8830    -2.4260 os         1 V3J      -0.442000
     14 C14         10.4610    18.5250    -0.1190 c6         1 V3J       0.059500
     15 N15          8.7180    24.8920     3.5020 nc         1 V3J      -0.147400
     16 N16          9.2830    26.0830     3.6690 nd         1 V3J      -0.099500
     17 S17         10.8090    26.2770     2.9700 ss         1 V3J       0.242500
     18 H1          11.6440    20.6760    -1.5250 h1         1 V3J       0.066200
     19 H2          10.4430    21.8540    -0.9720 h1         1 V3J       0.066200
     20 H3           8.4220    18.3340    -0.8880 h1         1 V3J       0.056200
     21 H4           9.5320    17.0560    -1.4440 h1         1 V3J       0.056200
     22 H6          12.6460    24.4140     1.3650 ha         1 V3J       0.134000
     23 H7           8.3280    22.2830     2.7140 ha         1 V3J       0.152000
     24 H8           9.8270    20.8200    -3.1850 h1         1 V3J       0.056200
     25 H9           8.5890    20.5620    -1.9330 h1         1 V3J       0.056200
     26 H10         10.2240    17.9790     0.8050 h1         1 V3J       0.066200
     27 H11         11.4660    18.2050    -0.4260 h1         1 V3J       0.066200
     28 H5          12.1920    22.0510     0.7270 ha         1 V3J       0.126000
@<TRIPOS>BOND
     1     1    11 1   
     2     1    12 1   
     3     1    18 1   
     4     1    19 1   
     5     2    13 1   
     6     2    14 1   
     7     2    20 1   
     8     2    21 1   
     9     3     4 ar  
    10     3     8 ar  
    11     3    28 1   
    12     4     5 ar  
    13     4    22 1   
    14     5     6 ar  
    15     5    17 1   
    16     6     7 ar  
    17     6    15 1   
    18     7     8 ar  
    19     7    23 1   
    20     8     9 1   
    21     9    10 2   
    22     9    11 1   
    23    11    14 1   
    24    12    13 1   
    25    12    24 1   
    26    12    25 1   
    27    14    26 1   
    28    14    27 1   
    29    15    16 2   
    30    16    17 1   
@<TRIPOS>SUBSTRUCTURE
     1 V3J         1 TEMP              0 ****  ****    0 ROOT
