@<TRIPOS>MOLECULE
V3K
   31    32     1     0     0
SMALL
No Charge or Current Charge


@<TRIPOS>ATOM
      1 C01         11.7350    15.7010     1.9970 c3         1 V3K       0.067900
      2 C03         13.5830    16.8130     0.6320 cc         1 V3K      -0.166000
      3 C04         13.7040    18.0760     0.1230 cd         1 V3K      -0.243300
      4 C05         12.5350    18.7750     0.4960 cd         1 V3K       0.267900
      5 C07         14.8470    18.6400    -0.6720 c3         1 V3K       0.188300
      6 C09         15.8940    20.4790     0.6820 c          1 V3K       0.608700
      7 C10         17.0290    20.8460     1.6200 ca         1 V3K      -0.121600
      8 C11         18.0240    19.9140     2.0060 ca         1 V3K      -0.088000
      9 C12         19.0620    20.2910     2.8770 ca         1 V3K      -0.070500
     10 C13         19.1310    21.6030     3.3840 ca         1 V3K      -0.183600
     11 C14         18.1450    22.5360     3.0050 ca         1 V3K      -0.070500
     12 C15         17.1080    22.1610     2.1340 ca         1 V3K      -0.088000
     13 C16         20.2500    21.9890     4.3170 c          1 V3K       0.582500
     14 N02         12.3510    16.8250     1.2770 na         1 V3K       0.132800
     15 N06         11.6950    18.0350     1.1960 nc         1 V3K      -0.526800
     16 N08         15.8720    19.1850     0.2110 ns         1 V3K      -0.495900
     17 O17         15.0340    21.2870     0.3540 o          1 V3K      -0.594100
     18 H1          11.5730    15.9820     3.0440 h1         1 V3K       0.057700
     19 H2          10.7730    15.4520     1.5330 h1         1 V3K       0.057700
     20 H3          12.3950    14.8270     1.9550 h1         1 V3K       0.057700
     21 H4          14.2330    15.9470     0.5960 h4         1 V3K       0.149000
     22 H5          12.2770    19.8030     0.2730 h4         1 V3K       0.053100
     23 H6          15.2930    17.8460    -1.2860 h1         1 V3K       0.060700
     24 H7          14.4820    19.4240    -1.3500 h1         1 V3K       0.060700
     25 H8          18.0120    18.8910     1.6410 ha         1 V3K       0.128500
     26 H9          19.8140    19.5550     3.1580 ha         1 V3K       0.127500
     27 H10         18.1780    23.5560     3.3840 ha         1 V3K       0.127500
     28 H11         16.3610    22.9020     1.8590 ha         1 V3K       0.128500
     29 H12         20.9800    21.1850     4.5580 h4         1 V3K      -0.009800
     30 H15         16.6070    18.5670     0.5260 hn         1 V3K       0.311500
     31 O1          20.3740    23.1120     4.7960 o          1 V3K      -0.509100
@<TRIPOS>BOND
     1     1    14 1   
     2     1    18 1   
     3     1    19 1   
     4     1    20 1   
     5     2     3 2   
     6     2    14 1   
     7     2    21 1   
     8     3     4 1   
     9     3     5 1   
    10     4    15 2   
    11     4    22 1   
    12     5    16 1   
    13     5    23 1   
    14     5    24 1   
    15     6     7 1   
    16     6    16 1   
    17     6    17 2   
    18     7     8 ar  
    19     7    12 ar  
    20     8     9 ar  
    21     8    25 1   
    22     9    10 ar  
    23     9    26 1   
    24    10    11 ar  
    25    10    13 1   
    26    11    12 ar  
    27    11    27 1   
    28    12    28 1   
    29    13    29 1   
    30    13    31 2   
    31    14    15 1   
    32    16    30 1   
@<TRIPOS>SUBSTRUCTURE
     1 V3K         1 TEMP              0 ****  ****    0 ROOT
