@<TRIPOS>MOLECULE
V3K
   31    32     1     0     0
SMALL
abcg2


@<TRIPOS>ATOM
      1 C01         11.5190    15.9180     2.0060 c3         1 V3K       0.067900
      2 C03         13.4280    16.8420     0.6920 cc         1 V3K      -0.166000
      3 C04         13.7480    18.0840     0.1900 cd         1 V3K      -0.243300
      4 C05         12.6710    18.8940     0.5930 cd         1 V3K       0.267900
      5 C07         14.9770    18.4670    -0.5710 c3         1 V3K       0.188300
      6 C09         16.0310    20.3230     0.6280 c          1 V3K       0.608700
      7 C10         17.1280    20.7390     1.5610 ca         1 V3K      -0.121600
      8 C11         18.3670    20.1060     1.5930 ca         1 V3K      -0.088000
      9 C12         19.3490    20.5460     2.4670 ca         1 V3K      -0.070500
     10 C13         19.1020    21.6190     3.3160 ca         1 V3K      -0.183600
     11 C14         17.8640    22.2620     3.2780 ca         1 V3K      -0.070500
     12 C15         16.8910    21.8300     2.4000 ca         1 V3K      -0.088000
     13 C16         20.1640    22.0570     4.2400 c          1 V3K       0.582500
     14 N02         12.2510    16.9630     1.3290 na         1 V3K       0.132800
     15 N06         11.7770    18.2040     1.2760 nc         1 V3K      -0.526800
     16 N08         16.0180    19.0300     0.2700 ns         1 V3K      -0.495900
     17 O17         15.2100    21.1370     0.2310 o          1 V3K      -0.594100
     18 H1          10.6090    16.3480     2.4140 h1         1 V3K       0.057700
     19 H2          11.2550    15.1210     1.3130 h1         1 V3K       0.057700
     20 H3          12.1090    15.5000     2.8200 h1         1 V3K       0.057700
     21 H4          13.9500    15.8990     0.6330 h4         1 V3K       0.149000
     22 H5          12.5230    19.9460     0.4030 h4         1 V3K       0.053100
     23 H6          15.3990    17.5910    -1.0620 h1         1 V3K       0.060700
     24 H7          14.7370    19.1840    -1.3540 h1         1 V3K       0.060700
     25 H8          18.5900    19.2840     0.9250 ha         1 V3K       0.128500
     26 H9          20.3140    20.0530     2.4850 ha         1 V3K       0.127500
     27 H10         17.6670    23.0990     3.9350 ha         1 V3K       0.127500
     28 H11         15.9350    22.3340     2.3690 ha         1 V3K       0.128500
     29 H12         21.0960    21.4680     4.1780 h4         1 V3K      -0.009800
     30 H15         16.6110    18.3780     0.7570 hn         1 V3K       0.311500
     31 O1          20.0590    22.9790     5.0130 o          1 V3K      -0.509100
@<TRIPOS>BOND
     1     1    14 1   
     2     1    18 1   
     3     1    19 1   
     4     1    20 1   
     5     2     3 2   
     6     2    14 1   
     7     2    21 1   
     8     3     4 1   
     9     3     5 1   
    10     4    15 2   
    11     4    22 1   
    12     5    16 1   
    13     5    23 1   
    14     5    24 1   
    15     6     7 1   
    16     6    16 1   
    17     6    17 2   
    18     7     8 ar  
    19     7    12 ar  
    20     8     9 ar  
    21     8    25 1   
    22     9    10 ar  
    23     9    26 1   
    24    10    11 ar  
    25    10    13 1   
    26    11    12 ar  
    27    11    27 1   
    28    12    28 1   
    29    13    29 1   
    30    13    31 2   
    31    14    15 1   
    32    16    30 1   
@<TRIPOS>SUBSTRUCTURE
     1 V3K         1 TEMP              0 ****  ****    0 ROOT
