@<TRIPOS>MOLECULE
V3M
   19    19     1     0     0
SMALL
bcc


@<TRIPOS>ATOM
      1 O1          -2.1570    -7.1770   -18.1750 oh         1 V3M      -0.598800
      2 O5          -1.1510   -10.4570   -21.7470 oh         1 V3M      -0.578800
      3 C5          -1.8240    -9.2590   -22.0470 c3         1 V3M       0.135400
      4 C4          -2.3580    -8.6630   -20.7640 c5         1 V3M       0.144100
      5 O4          -1.2710    -8.3640   -19.8890 os         1 V3M      -0.370600
      6 C1          -1.4060    -7.0910   -19.3500 c5         1 V3M       0.325900
      7 C2          -2.1520    -6.3050   -20.4200 c5         1 V3M       0.069600
      8 F2          -1.2370    -5.9400   -21.4070 f          1 V3M      -0.238300
      9 C3          -3.1090    -7.3430   -21.0040 c5         1 V3M       0.097100
     10 O3          -4.3380    -7.3830   -20.3290 oh         1 V3M      -0.566800
     11 HO5         -0.8370   -10.8370   -22.5720 ho         1 V3M       0.404000
     12 H51         -1.1670    -8.5300   -22.5400 h1         1 V3M       0.025700
     13 H52         -2.6780    -9.4270   -22.7170 h1         1 V3M       0.025700
     14 H4          -3.0310    -9.3820   -20.2820 h1         1 V3M       0.094700
     15 H1          -0.4060    -6.6860   -19.1570 h2         1 V3M       0.075700
     16 H2          -2.6390    -5.4010   -20.0520 h1         1 V3M       0.074700
     17 H3          -3.2490    -7.1530   -22.0760 h1         1 V3M       0.055700
     18 HO3         -4.8500    -6.6090   -20.5840 ho         1 V3M       0.407000
     19 HO1         -1.9330    -6.4350   -17.6050 ho         1 V3M       0.416000
@<TRIPOS>BOND
     1     1     6 1   
     2     1    19 1   
     3     2     3 1   
     4     2    11 1   
     5     3     4 1   
     6     3    12 1   
     7     3    13 1   
     8     4     5 1   
     9     4     9 1   
    10     4    14 1   
    11     5     6 1   
    12     6     7 1   
    13     6    15 1   
    14     7     8 1   
    15     7     9 1   
    16     7    16 1   
    17     9    10 1   
    18     9    17 1   
    19    10    18 1   
@<TRIPOS>SUBSTRUCTURE
     1 V3M         1 TEMP              0 ****  ****    0 ROOT
