@<TRIPOS>MOLECULE
V3M
   19    19     1     0     0
SMALL
No Charge or Current Charge


@<TRIPOS>ATOM
      1 O1          -1.3620    -7.3830   -18.1160 oh         1 V3M      -0.661000
      2 O5          -1.7610   -10.8740   -21.3270 oh         1 V3M      -0.701000
      3 C5          -2.1420    -9.6000   -21.8820 c3         1 V3M       0.158600
      4 C4          -2.2630    -8.5100   -20.7810 c5         1 V3M       0.167300
      5 O4          -0.9640    -8.1310   -20.2820 os         1 V3M      -0.417000
      6 C1          -1.1530    -6.9660   -19.4620 c5         1 V3M       0.372300
      7 C2          -2.4210    -6.2470   -20.0560 c5         1 V3M       0.088300
      8 F2          -2.1340    -4.9380   -20.4610 f          1 V3M      -0.257000
      9 C3          -2.8010    -7.1400   -21.2790 c5         1 V3M       0.120300
     10 O3          -4.2110    -7.1410   -21.5570 oh         1 V3M      -0.689000
     11 HO5         -1.6560   -11.4980   -22.0840 ho         1 V3M       0.503000
     12 H51         -1.4080    -9.2710   -22.6300 h1         1 V3M       0.025700
     13 H52         -3.1120    -9.6920   -22.3900 h1         1 V3M       0.025700
     14 H4          -2.8760    -8.9000   -19.9560 h1         1 V3M       0.094700
     15 H1          -0.2650    -6.3220   -19.5290 h2         1 V3M       0.075700
     16 H2          -3.2340    -6.2060   -19.3190 h1         1 V3M       0.074700
     17 H3          -2.2380    -6.8260   -22.1700 h1         1 V3M       0.055700
     18 HO3         -4.4480    -6.2330   -21.8620 ho         1 V3M       0.506000
     19 HO1         -1.3440    -6.5660   -17.5720 ho         1 V3M       0.455000
@<TRIPOS>BOND
     1     1     6 1   
     2     1    19 1   
     3     2     3 1   
     4     2    11 1   
     5     3     4 1   
     6     3    12 1   
     7     3    13 1   
     8     4     5 1   
     9     4     9 1   
    10     4    14 1   
    11     5     6 1   
    12     6     7 1   
    13     6    15 1   
    14     7     8 1   
    15     7     9 1   
    16     7    16 1   
    17     9    10 1   
    18     9    17 1   
    19    10    18 1   
@<TRIPOS>SUBSTRUCTURE
     1 V3M         1 TEMP              0 ****  ****    0 ROOT
