@<TRIPOS>MOLECULE
V3N
   35    36     1     0     0
SMALL
abcg2


@<TRIPOS>ATOM
      1 C01        -20.0260    21.8250    -4.3480 c          1 V3N       0.582500
      2 C02        -18.9630    21.4550    -3.3970 ca         1 V3N      -0.184600
      3 C03        -19.2180    20.4600    -2.4600 ca         1 V3N      -0.068500
      4 C04        -18.2370    20.0800    -1.5570 ca         1 V3N      -0.090000
      5 C05        -16.9910    20.7010    -1.5830 ca         1 V3N      -0.122600
      6 C06        -15.9030    20.3520    -0.6120 c          1 V3N       0.609700
      7 C08        -14.8670    18.5020     0.6570 c3         1 V3N       0.097000
      8 C09        -14.0660    17.3600     0.0260 c6         1 V3N      -0.072700
      9 C10        -13.1100    17.8530    -1.0780 c6         1 V3N      -0.107900
     10 C11        -11.6790    17.9570    -0.5540 c6         1 V3N       0.156100
     11 C13        -12.1870    17.5030     1.6990 c6         1 V3N       0.156100
     12 C14        -13.2650    16.6070     1.0860 c6         1 V3N      -0.107900
     13 C16        -16.7450    21.7160    -2.5080 ca         1 V3N      -0.090000
     14 C17        -17.7170    22.0830    -3.4170 ca         1 V3N      -0.068500
     15 N07        -15.8280    19.0560    -0.2720 ns         1 V3N      -0.503900
     16 O12        -11.6630    18.4380     0.7710 os         1 V3N      -0.447000
     17 O15        -15.1460    21.2160    -0.1930 o          1 V3N      -0.588100
     18 H1         -20.9570    21.2410    -4.2420 h4         1 V3N      -0.009800
     19 H4         -20.1880    19.9760    -2.4350 ha         1 V3N       0.127500
     20 H5         -18.4630    19.3200    -0.8210 ha         1 V3N       0.128500
     21 H6         -14.2130    19.3090     0.9820 h1         1 V3N       0.065200
     22 H7         -15.3960    18.1350     1.5410 h1         1 V3N       0.065200
     23 H8         -14.7910    16.6660    -0.4110 hc         1 V3N       0.042700
     24 H9         -13.4380    18.8250    -1.4560 hc         1 V3N       0.049950
     25 H10        -13.1250    17.1770    -1.9360 hc         1 V3N       0.049950
     26 H11        -11.1720    16.9850    -0.6240 h1         1 V3N       0.043700
     27 H12        -11.0960    18.6540    -1.1550 h1         1 V3N       0.043700
     28 H13        -11.3820    16.8820     2.1140 h1         1 V3N       0.043700
     29 H14        -12.6010    18.0860     2.5250 h1         1 V3N       0.043700
     30 H15        -13.9110    16.2260     1.8800 hc         1 V3N       0.049950
     31 H16        -12.8090    15.7310     0.6170 hc         1 V3N       0.049950
     32 H17        -15.7840    22.2110    -2.5200 ha         1 V3N       0.128500
     33 H18        -17.5140    22.8610    -4.1430 ha         1 V3N       0.127500
     34 H19        -16.4410    18.3990    -0.7310 hn         1 V3N       0.310500
     35 O1         -19.9220    22.6880    -5.1860 o          1 V3N      -0.509100
@<TRIPOS>BOND
     1     1     2 1   
     2     1    18 1   
     3     1    35 2   
     4     2     3 ar  
     5     2    14 ar  
     6     3     4 ar  
     7     3    19 1   
     8     4     5 ar  
     9     4    20 1   
    10     5     6 1   
    11     5    13 ar  
    12     6    15 1   
    13     6    17 2   
    14     7     8 1   
    15     7    15 1   
    16     7    21 1   
    17     7    22 1   
    18     8     9 1   
    19     8    12 1   
    20     8    23 1   
    21     9    10 1   
    22     9    24 1   
    23     9    25 1   
    24    10    16 1   
    25    10    26 1   
    26    10    27 1   
    27    11    12 1   
    28    11    16 1   
    29    11    28 1   
    30    11    29 1   
    31    12    30 1   
    32    12    31 1   
    33    13    14 ar  
    34    13    32 1   
    35    14    33 1   
    36    15    34 1   
@<TRIPOS>SUBSTRUCTURE
     1 V3N         1 TEMP              0 ****  ****    0 ROOT
