@<TRIPOS>MOLECULE
V3N
   35    36     1     0     0
SMALL
No Charge or Current Charge


@<TRIPOS>ATOM
      1 C01        -20.0190    21.9200    -4.4220 c          1 V3N       0.582500
      2 C02        -18.9110    21.4980    -3.4920 ca         1 V3N      -0.184600
      3 C03        -19.0590    20.3400    -2.7050 ca         1 V3N      -0.068500
      4 C04        -18.0350    19.9320    -1.8320 ca         1 V3N      -0.090000
      5 C05        -16.8340    20.6770    -1.7280 ca         1 V3N      -0.122600
      6 C06        -15.7040    20.2690    -0.7990 c          1 V3N       0.609700
      7 C08        -14.9240    18.5420     0.8770 c3         1 V3N       0.097000
      8 C09        -14.1900    17.3010     0.2750 c6         1 V3N      -0.072700
      9 C10        -13.3130    17.6420    -0.9670 c6         1 V3N      -0.107900
     10 C11        -11.9990    18.3880    -0.5920 c6         1 V3N       0.156100
     11 C13        -11.9200    17.2480     1.5440 c6         1 V3N       0.156100
     12 C14        -13.3070    16.5730     1.3340 c6         1 V3N      -0.107900
     13 C16        -16.6950    21.8370    -2.5230 ca         1 V3N      -0.090000
     14 C17        -17.7200    22.2440    -3.3950 ca         1 V3N      -0.068500
     15 N07        -15.9050    19.1310    -0.0440 ns         1 V3N      -0.503900
     16 O12        -11.8430    18.5050     0.8400 os         1 V3N      -0.447000
     17 O15        -14.6670    20.9130    -0.7190 o          1 V3N      -0.588100
     18 H1         -20.9210    21.2680    -4.4300 h4         1 V3N      -0.009800
     19 H4         -19.9720    19.7490    -2.7670 ha         1 V3N       0.127500
     20 H5         -18.1950    19.0310    -1.2460 ha         1 V3N       0.128500
     21 H6         -14.1960    19.3040     1.1820 h1         1 V3N       0.065200
     22 H7         -15.4610    18.2260     1.7810 h1         1 V3N       0.065200
     23 H8         -14.9860    16.6100    -0.0380 hc         1 V3N       0.042700
     24 H9         -13.8800    18.2240    -1.7040 hc         1 V3N       0.049950
     25 H10        -13.0460    16.7070    -1.4790 hc         1 V3N       0.049950
     26 H11        -11.1310    17.8560    -1.0100 h1         1 V3N       0.043700
     27 H12        -12.0110    19.4000    -1.0230 h1         1 V3N       0.043700
     28 H13        -11.1200    16.5860     1.1790 h1         1 V3N       0.043700
     29 H14        -11.7470    17.4260     2.6150 h1         1 V3N       0.043700
     30 H15        -13.8390    16.5080     2.2930 hc         1 V3N       0.049950
     31 H16        -13.1430    15.5340     1.0160 hc         1 V3N       0.049950
     32 H17        -15.7860    22.4330    -2.4690 ha         1 V3N       0.128500
     33 H18        -17.5820    23.1430    -3.9940 ha         1 V3N       0.127500
     34 H19        -16.7900    18.6570    -0.1620 hn         1 V3N       0.310500
     35 O1         -19.9600    22.9160    -5.1370 o          1 V3N      -0.509100
@<TRIPOS>BOND
     1     1     2 1   
     2     1    18 1   
     3     1    35 2   
     4     2     3 ar  
     5     2    14 ar  
     6     3     4 ar  
     7     3    19 1   
     8     4     5 ar  
     9     4    20 1   
    10     5     6 1   
    11     5    13 ar  
    12     6    15 1   
    13     6    17 2   
    14     7     8 1   
    15     7    15 1   
    16     7    21 1   
    17     7    22 1   
    18     8     9 1   
    19     8    12 1   
    20     8    23 1   
    21     9    10 1   
    22     9    24 1   
    23     9    25 1   
    24    10    16 1   
    25    10    26 1   
    26    10    27 1   
    27    11    12 1   
    28    11    16 1   
    29    11    28 1   
    30    11    29 1   
    31    12    30 1   
    32    12    31 1   
    33    13    14 ar  
    34    13    32 1   
    35    14    33 1   
    36    15    34 1   
@<TRIPOS>SUBSTRUCTURE
     1 V3N         1 TEMP              0 ****  ****    0 ROOT
