@<TRIPOS>MOLECULE
V3O
   36    38     1     0     0
SMALL
No Charge or Current Charge


@<TRIPOS>ATOM
      1 C7          18.5130     0.5970    44.9090 ca         1 V3O       0.312000
      2 C9          19.8700    -0.0620    46.8310 ca         1 V3O      -0.072000
      3 C5          16.9660     5.1340    43.8670 cc         1 V3O      -0.265000
      4 C6          17.4970     2.8160    44.2470 cc         1 V3O       0.725300
      5 N1          17.6130     1.4580    44.2840 nu         1 V3O      -0.925900
      6 C4          18.0510     4.8980    44.6870 cd         1 V3O       0.423500
      7 C11         19.8310    -1.4580    44.8390 ca         1 V3O      -0.072000
      8 C2          18.6770     7.3030    45.2010 cc         1 V3O       0.355300
      9 C14         22.4480     7.4200    48.0740 c          1 V3O       0.620100
     10 C15         22.6930     5.9230    48.2390 c3         1 V3O      -0.188100
     11 C1          17.6560     8.1010    44.4360 c3         1 V3O      -0.127400
     12 C10         20.2990    -1.2070    46.1390 ca         1 V3O       0.089000
     13 C12         18.9360    -0.5580    44.2290 ca         1 V3O      -0.147000
     14 C13         20.4500     7.2790    46.5500 cd         1 V3O       0.559300
     15 C3          18.8440     5.9340    45.3060 cd         1 V3O      -0.303500
     16 C8          18.9750     0.8340    46.2180 ca         1 V3O      -0.147000
     17 N2          18.3530     3.5660    44.8950 nd         1 V3O      -0.736000
     18 N4          19.5920     8.0460    45.9080 nc         1 V3O      -0.715000
     19 O1          23.1710     8.2250    48.6360 o          1 V3O      -0.560100
     20 S1          16.2770     3.6350    43.3140 ss         1 V3O      -0.089400
     21 S2          20.2090     5.5450    46.3390 ss         1 V3O       0.024600
     22 Cl1         21.4160    -2.3290    46.9040 cl         1 V3O      -0.201000
     23 H1          20.2260     0.1270    47.8410 ha         1 V3O       0.129500
     24 H2          16.5100     6.0500    43.5350 h4         1 V3O       0.167000
     25 H3          17.0570     1.0300    43.5500 hn         1 V3O       0.507000
     26 H4          20.1610    -2.3460    44.3060 ha         1 V3O       0.129500
     27 H5          21.3840     8.9030    47.2860 hn         1 V3O       0.339500
     28 H6          23.5500     5.7190    48.8900 hc         1 V3O       0.074033
     29 H7          21.7880     5.4450    48.6290 hc         1 V3O       0.074033
     30 H8          22.8360     5.4650    47.2550 hc         1 V3O       0.074033
     31 H9          17.8090     9.1790    44.5680 hc         1 V3O       0.054033
     32 H10         17.7250     7.8980    43.3620 hc         1 V3O       0.054033
     33 H11         16.6420     7.8770    44.7860 hc         1 V3O       0.054033
     34 H12         18.5790    -0.7590    43.2230 ha         1 V3O       0.133500
     35 H13         18.6380     1.7080    46.7660 ha         1 V3O       0.133500
     36 N3          21.4190     7.8950    47.2970 ns         1 V3O      -0.484400
@<TRIPOS>BOND
     1     1     5 1   
     2     1    13 ar  
     3     1    16 ar  
     4     2    12 ar  
     5     2    16 ar  
     6     2    23 1   
     7     3     6 2   
     8     3    20 1   
     9     3    24 1   
    10     4     5 1   
    11     4    17 2   
    12     4    20 1   
    13     5    25 1   
    14     6    15 1   
    15     6    17 1   
    16     7    12 ar  
    17     7    13 ar  
    18     7    26 1   
    19     8    11 1   
    20     8    15 2   
    21     8    18 1   
    22     9    10 1   
    23     9    19 2   
    24     9    36 1   
    25    10    28 1   
    26    10    29 1   
    27    10    30 1   
    28    11    31 1   
    29    11    32 1   
    30    11    33 1   
    31    12    22 1   
    32    13    34 1   
    33    14    18 2   
    34    14    21 1   
    35    14    36 1   
    36    15    21 1   
    37    16    35 1   
    38    27    36 1   
@<TRIPOS>SUBSTRUCTURE
     1 V3O         1 TEMP              0 ****  ****    0 ROOT
