@<TRIPOS>MOLECULE
V3O
   36    38     1     0     0
SMALL
abcg2


@<TRIPOS>ATOM
      1 C7          18.7190     0.7120    44.8230 ca         1 V3O       0.312000
      2 C9          20.4130     0.3140    46.4940 ca         1 V3O      -0.072000
      3 C5          17.0520     5.1450    43.6050 cc         1 V3O      -0.265000
      4 C6          17.7590     2.8600    44.0440 cc         1 V3O       0.725300
      5 N1          17.8890     1.5110    44.0440 nu         1 V3O      -0.925900
      6 C4          18.0580     4.9960    44.5090 cd         1 V3O       0.423500
      7 C11         19.3900    -1.5480    45.3740 ca         1 V3O      -0.072000
      8 C2          18.6010     7.3850    45.2890 cc         1 V3O       0.355300
      9 C14         22.2900     7.1230    48.2330 c          1 V3O       0.620100
     10 C15         22.5070     5.6460    48.0920 c3         1 V3O      -0.188100
     11 C1          17.5730     8.1720    44.5500 c3         1 V3O      -0.127400
     12 C10         20.2910    -1.0510    46.3030 ca         1 V3O       0.089000
     13 C12         18.6120    -0.6720    44.6420 ca         1 V3O      -0.147000
     14 C13         20.3110     7.2150    46.6720 cd         1 V3O       0.559300
     15 C3          18.7610     6.0290    45.2360 cd         1 V3O      -0.303500
     16 C8          19.6340     1.1970    45.7590 ca         1 V3O      -0.147000
     17 N2          18.4480     3.7000    44.7470 nd         1 V3O      -0.736000
     18 N4          19.4820     8.0350    46.1020 nc         1 V3O      -0.715000
     19 O1          22.9850     7.8240    48.9390 o          1 V3O      -0.560100
     20 S1          16.5560     3.6010    43.0200 ss         1 V3O      -0.089400
     21 S2          20.0770     5.5540    46.2600 ss         1 V3O       0.024600
     22 CL1         21.2660    -2.1460    47.2280 cl         1 V3O      -0.201000
     23 H1          21.1160     0.7060    47.2170 ha         1 V3O       0.129500
     24 H2          16.5820     6.0410    43.2390 h4         1 V3O       0.167000
     25 H3          17.2820     1.0080    43.4130 hn         1 V3O       0.507000
     26 H4          19.2890    -2.6140    45.2170 ha         1 V3O       0.129500
     27 H5          21.1830     8.7100    47.6640 hn         1 V3O       0.339500
     28 H6          23.3740     5.3600    48.6820 hc         1 V3O       0.074033
     29 H7          21.6480     5.0780    48.4540 hc         1 V3O       0.074033
     30 H8          22.6910     5.3610    47.0540 hc         1 V3O       0.074033
     31 H9          17.6360     9.2230    44.8220 hc         1 V3O       0.054033
     32 H10         17.7100     8.0970    43.4690 hc         1 V3O       0.054033
     33 H11         16.5640     7.8240    44.7740 hc         1 V3O       0.054033
     34 H12         17.9100    -1.0710    43.9200 ha         1 V3O       0.133500
     35 H13         19.7460     2.2560    45.9230 ha         1 V3O       0.133500
     36 N3          21.2600     7.7080    47.5340 ns         1 V3O      -0.484400
@<TRIPOS>BOND
     1     1     5 1   
     2     1    13 ar  
     3     1    16 ar  
     4     2    12 ar  
     5     2    16 ar  
     6     2    23 1   
     7     3     6 2   
     8     3    20 1   
     9     3    24 1   
    10     4     5 1   
    11     4    17 2   
    12     4    20 1   
    13     5    25 1   
    14     6    15 1   
    15     6    17 1   
    16     7    12 ar  
    17     7    13 ar  
    18     7    26 1   
    19     8    11 1   
    20     8    15 2   
    21     8    18 1   
    22     9    10 1   
    23     9    19 2   
    24     9    36 1   
    25    10    28 1   
    26    10    29 1   
    27    10    30 1   
    28    11    31 1   
    29    11    32 1   
    30    11    33 1   
    31    12    22 1   
    32    13    34 1   
    33    14    18 2   
    34    14    21 1   
    35    14    36 1   
    36    15    21 1   
    37    16    35 1   
    38    27    36 1   
@<TRIPOS>SUBSTRUCTURE
     1 V3O         1 TEMP              0 ****  ****    0 ROOT
