@<TRIPOS>MOLECULE
V3P
   34    35     1     0     0
SMALL
No Charge or Current Charge


@<TRIPOS>ATOM
      1 C4          62.4580    78.8280    58.0870 c6         1 V3P       0.025300
      2 C1          62.3320    80.2550    55.5140 c6         1 V3P       0.282300
      3 C2          61.5070    78.9440    55.7130 c6         1 V3P       0.164300
      4 O2          60.2860    78.9340    54.9430 oh         1 V3P      -0.700000
      5 C3          61.1690    78.7770    57.2230 c6         1 V3P       0.145300
      6 O3          60.4600    77.5460    57.4480 oh         1 V3P      -0.663000
      7 C5          63.2430    80.1380    57.7740 c6         1 V3P       0.168300
      8 O5          63.5110    80.2100    56.3510 os         1 V3P      -0.430000
      9 S1          62.8630    80.4980    53.7540 ss         1 V3P      -0.112000
     10 C6          64.6110    80.2310    58.5290 c3         1 V3P       0.167600
     11 O6          65.3630    81.4150    58.1990 oh         1 V3P      -0.710000
     12 S4          61.9740    78.7200    59.9050 sh         1 V3P      -0.453800
     13 C11         65.2550    83.5580    52.5110 ca         1 V3P      -0.087000
     14 C21         64.5290    82.3560    52.5880 ca         1 V3P      -0.082000
     15 C31         63.7670    82.0550    53.7340 ca         1 V3P      -0.109000
     16 C41         63.7320    82.9780    54.8030 ca         1 V3P      -0.082000
     17 C51         64.4600    84.1790    54.7220 ca         1 V3P      -0.087000
     18 C61         65.2210    84.4670    53.5790 ca         1 V3P       0.206000
     19 I6          66.3390    86.3180    53.4610 i          1 V3P      -0.315000
     20 H4          63.0940    77.9670    57.8310 h1         1 V3P       0.088700
     21 H1          61.7090    81.1200    55.7810 h2         1 V3P       0.074700
     22 H2          62.1440    78.1000    55.4080 h1         1 V3P       0.062700
     23 HO2         59.7360    78.2230    55.3540 ho         1 V3P       0.525000
     24 H3          60.5330    79.6250    57.5220 h1         1 V3P       0.056700
     25 HO3         60.4480    77.4200    58.4250 ho         1 V3P       0.467000
     26 H5          62.6350    81.0080    58.0650 h1         1 V3P       0.067700
     27 H61         64.4150    80.2090    59.6090 h1         1 V3P       0.032700
     28 H62         65.1960    79.3330    58.2860 h1         1 V3P       0.032700
     29 HO6         66.2380    81.3360    58.6460 ho         1 V3P       0.508000
     30 HS4         63.2350    78.6110    60.3950 hs         1 V3P       0.221800
     31 H13         64.5600    81.6550    51.7560 ha         1 V3P       0.139000
     32 H14         63.1510    82.7860    55.6990 ha         1 V3P       0.139000
     33 H15         64.4350    84.8880    55.5460 ha         1 V3P       0.128500
     34 H12         65.8440    83.7850    51.6260 ha         1 V3P       0.128500
@<TRIPOS>BOND
     1     1     5 1   
     2     1     7 1   
     3     1    12 1   
     4     1    20 1   
     5     2     3 1   
     6     2     8 1   
     7     2     9 1   
     8     2    21 1   
     9     3     4 1   
    10     3     5 1   
    11     3    22 1   
    12     4    23 1   
    13     5     6 1   
    14     5    24 1   
    15     6    25 1   
    16     7     8 1   
    17     7    10 1   
    18     7    26 1   
    19     9    15 1   
    20    10    11 1   
    21    10    27 1   
    22    10    28 1   
    23    11    29 1   
    24    12    30 1   
    25    13    14 ar  
    26    13    18 ar  
    27    13    34 1   
    28    14    15 ar  
    29    14    31 1   
    30    15    16 ar  
    31    16    17 ar  
    32    16    32 1   
    33    17    18 ar  
    34    17    33 1   
    35    18    19 1   
@<TRIPOS>SUBSTRUCTURE
     1 V3P         1 TEMP              0 ****  ****    0 ROOT
