@<TRIPOS>MOLECULE
V3P
   34    35     1     0     0
SMALL
bcc


@<TRIPOS>ATOM
      1 C4          62.3380    79.0100    58.1550 c6         1 V3P      -0.022600
      2 C1          62.7760    80.1300    55.5670 c6         1 V3P       0.211200
      3 C2          61.8570    78.9160    55.6780 c6         1 V3P       0.141100
      4 O2          60.8740    79.0120    54.6870 oh         1 V3P      -0.577800
      5 C3          61.2480    78.9180    57.0820 c6         1 V3P       0.122100
      6 O3          60.4840    77.7500    57.2040 oh         1 V3P      -0.600800
      7 C5          63.2590    80.1940    57.8660 c6         1 V3P       0.145100
      8 O5          63.7670    80.0540    56.5510 os         1 V3P      -0.383600
      9 S1          63.5690    80.1500    53.9410 ss         1 V3P      -0.191000
     10 C6          64.4480    80.2710    58.7970 c3         1 V3P       0.144400
     11 O6          65.1930    81.4190    58.4710 oh         1 V3P      -0.587800
     12 S4          61.5050    79.1680    59.7780 sh         1 V3P      -0.405900
     13 C11         64.2030    83.8370    52.4650 ca         1 V3P      -0.105000
     14 C21         63.7800    82.5280    52.6460 ca         1 V3P      -0.100000
     15 C31         64.0840    81.8390    53.8170 ca         1 V3P       0.017900
     16 C41         64.8200    82.4750    54.8150 ca         1 V3P      -0.100000
     17 C51         65.2240    83.7920    54.6510 ca         1 V3P      -0.105000
     18 C61         64.9190    84.4620    53.4740 ca         1 V3P       0.068900
     19 I6          65.5530    86.4500    53.2200 i          1 V3P      -0.177900
     20 H4          62.9190    78.0830    58.1630 h1         1 V3P       0.088700
     21 H1          62.1890    81.0540    55.6670 h2         1 V3P       0.074700
     22 H2          62.4680    78.0070    55.5640 h1         1 V3P       0.062700
     23 HO2         60.3060    78.2360    54.7440 ho         1 V3P       0.426000
     24 H3          60.6150    79.8170    57.1600 h1         1 V3P       0.056700
     25 HO3         60.0550    77.7610    58.0690 ho         1 V3P       0.428000
     26 H5          62.6760    81.1250    57.9450 h1         1 V3P       0.067700
     27 H61         64.0780    80.3050    59.8270 h1         1 V3P       0.032700
     28 H62         65.0420    79.3520    58.6950 h1         1 V3P       0.032700
     29 HO6         65.9540    81.4590    59.0570 ho         1 V3P       0.409000
     30 HS4         62.2260    78.2640    60.4480 hs         1 V3P       0.221800
     31 H13         63.2010    82.0480    51.8680 ha         1 V3P       0.157000
     32 H14         65.0820    81.9600    55.7290 ha         1 V3P       0.157000
     33 H15         65.7870    84.2740    55.4390 ha         1 V3P       0.146500
     34 H12         63.9550    84.3520    51.5470 ha         1 V3P       0.146500
@<TRIPOS>BOND
     1     1     5 1   
     2     1     7 1   
     3     1    12 1   
     4     1    20 1   
     5     2     3 1   
     6     2     8 1   
     7     2     9 1   
     8     2    21 1   
     9     3     4 1   
    10     3     5 1   
    11     3    22 1   
    12     4    23 1   
    13     5     6 1   
    14     5    24 1   
    15     6    25 1   
    16     7     8 1   
    17     7    10 1   
    18     7    26 1   
    19     9    15 1   
    20    10    11 1   
    21    10    27 1   
    22    10    28 1   
    23    11    29 1   
    24    12    30 1   
    25    13    14 ar  
    26    13    18 ar  
    27    13    34 1   
    28    14    15 ar  
    29    14    31 1   
    30    15    16 ar  
    31    16    17 ar  
    32    16    32 1   
    33    17    18 ar  
    34    17    33 1   
    35    18    19 1   
@<TRIPOS>SUBSTRUCTURE
     1 V3P         1 TEMP              0 ****  ****    0 ROOT
