@<TRIPOS>MOLECULE
V3Q
   35    36     1     0     0
SMALL
No Charge or Current Charge


@<TRIPOS>ATOM
      1 C01         27.8350    14.2540     0.1500 c3         1 V3Q       0.148900
      2 C03         29.0780    15.9700    -1.1180 ca         1 V3Q       0.139100
      3 C04         30.0760    16.2500    -2.0650 ca         1 V3Q      -0.139000
      4 C05         30.3640    17.5770    -2.4230 ca         1 V3Q      -0.077000
      5 C06         29.6510    18.6330    -1.8320 ca         1 V3Q      -0.129000
      6 C07         28.6500    18.3680    -0.8780 ca         1 V3Q      -0.080300
      7 C08         27.8740    19.5120    -0.2430 c3         1 V3Q       0.142300
      8 C10         25.7070    20.7240    -0.6140 c          1 V3Q       0.610700
      9 C11         24.4600    20.8210    -1.4730 ca         1 V3Q      -0.122600
     10 C12         23.4840    21.8000    -1.1730 ca         1 V3Q      -0.088500
     11 C13         22.3170    21.9190    -1.9470 ca         1 V3Q      -0.069500
     12 C14         22.0970    21.0600    -3.0420 ca         1 V3Q      -0.182600
     13 C15         23.0630    20.0820    -3.3490 ca         1 V3Q      -0.069500
     14 C16         24.2310    19.9620    -2.5750 ca         1 V3Q      -0.088500
     15 C17         20.8510    21.1740    -3.8820 c          1 V3Q       0.582500
     16 C19         28.3630    17.0350    -0.5240 ca         1 V3Q      -0.191000
     17 N09         26.6210    19.7530    -0.9550 ns         1 V3Q      -0.499900
     18 O02         28.8360    14.6480    -0.8060 os         1 V3Q      -0.341100
     19 O18         25.9050    21.4660     0.3400 o          1 V3Q      -0.595100
     20 H1          27.8100    13.1620     0.2460 h1         1 V3Q       0.040700
     21 H2          28.0530    14.6780     1.1390 h1         1 V3Q       0.040700
     22 H3          26.8400    14.5910    -0.1670 h1         1 V3Q       0.040700
     23 H4          30.6270    15.4330    -2.5240 ha         1 V3Q       0.128000
     24 H5          31.1370    17.7870    -3.1600 ha         1 V3Q       0.117000
     25 H6          29.8770    19.6590    -2.1160 ha         1 V3Q       0.124000
     26 H7          27.6500    19.2720     0.8050 h1         1 V3Q       0.066200
     27 H8          28.4780    20.4290    -0.2590 h1         1 V3Q       0.066200
     28 H9          23.6280    22.4770    -0.3330 ha         1 V3Q       0.128500
     29 H10         21.5850    22.6830    -1.6900 ha         1 V3Q       0.128000
     30 H11         22.9110    19.4080    -4.1910 ha         1 V3Q       0.128000
     31 H12         24.9470    19.1920    -2.8500 ha         1 V3Q       0.128500
     32 H13         20.7660    20.4520    -4.7240 h4         1 V3Q      -0.009800
     33 H16         27.5850    16.8450     0.2090 ha         1 V3Q       0.114000
     34 H17         26.4050    19.1700    -1.7510 hn         1 V3Q       0.317500
     35 O1          19.9690    22.0010    -3.6730 o          1 V3Q      -0.508100
@<TRIPOS>BOND
     1     1    18 1   
     2     1    20 1   
     3     1    21 1   
     4     1    22 1   
     5     2     3 ar  
     6     2    16 ar  
     7     2    18 1   
     8     3     4 ar  
     9     3    23 1   
    10     4     5 ar  
    11     4    24 1   
    12     5     6 ar  
    13     5    25 1   
    14     6     7 1   
    15     6    16 ar  
    16     7    17 1   
    17     7    26 1   
    18     7    27 1   
    19     8     9 1   
    20     8    17 1   
    21     8    19 2   
    22     9    10 ar  
    23     9    14 ar  
    24    10    11 ar  
    25    10    28 1   
    26    11    12 ar  
    27    11    29 1   
    28    12    13 ar  
    29    12    15 1   
    30    13    14 ar  
    31    13    30 1   
    32    14    31 1   
    33    15    32 1   
    34    15    35 2   
    35    16    33 1   
    36    17    34 1   
@<TRIPOS>SUBSTRUCTURE
     1 V3Q         1 TEMP              0 ****  ****    0 ROOT
