@<TRIPOS>MOLECULE
V3Q
   35    36     1     0     0
SMALL
abcg2


@<TRIPOS>ATOM
      1 C01         29.1600    14.0240    -0.0290 c3         1 V3Q       0.148900
      2 C03         29.3830    16.0480    -1.2490 ca         1 V3Q       0.139100
      3 C04         30.0060    16.7380    -2.2900 ca         1 V3Q      -0.139000
      4 C05         29.6850    18.0640    -2.5250 ca         1 V3Q      -0.077000
      5 C06         28.7500    18.7220    -1.7370 ca         1 V3Q      -0.129000
      6 C07         28.1260    18.0390    -0.7000 ca         1 V3Q      -0.080300
      7 C08         27.1030    18.7300     0.1670 c3         1 V3Q       0.142300
      8 C10         25.6440    20.5140    -0.7120 c          1 V3Q       0.610700
      9 C11         24.4310    20.8010    -1.5470 ca         1 V3Q      -0.122600
     10 C12         24.3640    22.0350    -2.1970 ca         1 V3Q      -0.088500
     11 C13         23.2680    22.3580    -2.9720 ca         1 V3Q      -0.069500
     12 C14         22.2080    21.4580    -3.0880 ca         1 V3Q      -0.182600
     13 C15         22.2620    20.2390    -2.4210 ca         1 V3Q      -0.069500
     14 C16         23.3680    19.9090    -1.6550 ca         1 V3Q      -0.088500
     15 C17         21.0220    21.7700    -3.9050 c          1 V3Q       0.582500
     16 C19         28.4410    16.7050    -0.4580 ca         1 V3Q      -0.191000
     17 N09         25.9800    19.2180    -0.6020 ns         1 V3Q      -0.499900
     18 O02         29.7430    14.7610    -1.0840 os         1 V3Q      -0.341100
     19 O18         26.2630    21.4270    -0.1850 o          1 V3Q      -0.595100
     20 H1          29.5990    13.0300    -0.0670 h1         1 V3Q       0.040700
     21 H2          29.3770    14.4660     0.9470 h1         1 V3Q       0.040700
     22 H3          28.0760    13.9330    -0.1410 h1         1 V3Q       0.040700
     23 H4          30.7360    16.2300    -2.9080 ha         1 V3Q       0.128000
     24 H5          30.1750    18.5920    -3.3330 ha         1 V3Q       0.117000
     25 H6          28.5110    19.7610    -1.9290 ha         1 V3Q       0.124000
     26 H7          26.7410    18.0420     0.9340 h1         1 V3Q       0.066200
     27 H8          27.5510    19.5770     0.6830 h1         1 V3Q       0.066200
     28 H9          25.1810    22.7370    -2.1000 ha         1 V3Q       0.128500
     29 H10         23.2310    23.3100    -3.4850 ha         1 V3Q       0.128000
     30 H11         21.4320    19.5460    -2.4970 ha         1 V3Q       0.128000
     31 H12         23.3770    18.9630    -1.1280 ha         1 V3Q       0.128500
     32 H13         20.2480    20.9830    -3.9070 h4         1 V3Q      -0.009800
     33 H16         27.9370    16.1920     0.3510 ha         1 V3Q       0.114000
     34 H17         25.4740    18.5340    -1.1420 hn         1 V3Q       0.317500
     35 O1          20.8760    22.7900    -4.5340 o          1 V3Q      -0.508100
@<TRIPOS>BOND
     1     1    18 1   
     2     1    20 1   
     3     1    21 1   
     4     1    22 1   
     5     2     3 ar  
     6     2    16 ar  
     7     2    18 1   
     8     3     4 ar  
     9     3    23 1   
    10     4     5 ar  
    11     4    24 1   
    12     5     6 ar  
    13     5    25 1   
    14     6     7 1   
    15     6    16 ar  
    16     7    17 1   
    17     7    26 1   
    18     7    27 1   
    19     8     9 1   
    20     8    17 1   
    21     8    19 2   
    22     9    10 ar  
    23     9    14 ar  
    24    10    11 ar  
    25    10    28 1   
    26    11    12 ar  
    27    11    29 1   
    28    12    13 ar  
    29    12    15 1   
    30    13    14 ar  
    31    13    30 1   
    32    14    31 1   
    33    15    32 1   
    34    15    35 2   
    35    16    33 1   
    36    17    34 1   
@<TRIPOS>SUBSTRUCTURE
     1 V3Q         1 TEMP              0 ****  ****    0 ROOT
