@<TRIPOS>MOLECULE
V3R
   26    26     1     0     0
SMALL
No Charge or Current Charge


@<TRIPOS>ATOM
      1 C7          -0.2150    12.3170   -35.6510 ca         1 V3R       0.128000
      2 C8          -1.5620    12.0780   -35.9850 ca         1 V3R       0.133000
      3 C9          -2.5340    13.0640   -35.7460 ca         1 V3R      -0.126000
      4 C1          -4.9290    16.2730   -33.1660 c3         1 V3R       0.166500
      5 C5          -0.8150    14.5310   -34.8380 ca         1 V3R      -0.098000
      6 C6           0.1580    13.5430   -35.0770 ca         1 V3R      -0.121000
      7 C4          -2.1640    14.2970   -35.1720 ca         1 V3R      -0.064300
      8 C3          -3.2150    15.3670   -34.9070 c3         1 V3R      -0.031100
      9 C2          -3.7690    15.2880   -33.4650 c3         1 V3R      -0.074400
     10 F1           0.7250    11.3710   -35.8780 f          1 V3R      -0.165000
     11 F           -1.9300    10.8980   -36.5360 f          1 V3R      -0.165000
     12 C           -4.5290    17.7600   -33.2770 c3         1 V3R      -0.089100
     13 N           -5.4800    16.0100   -31.8280 n8         1 V3R      -1.005200
     14 H1          -3.5710    12.8670   -36.0060 ha         1 V3R       0.133000
     15 H2          -5.7370    16.0830   -33.8860 h1         1 V3R       0.011700
     16 H3          -0.5200    15.4780   -34.3910 ha         1 V3R       0.123000
     17 H4           1.1990    13.7260   -34.8180 ha         1 V3R       0.136000
     18 H5          -2.7810    16.3580   -35.0830 hc         1 V3R       0.050200
     19 H6          -4.0450    15.2650   -35.6180 hc         1 V3R       0.050200
     20 H7          -4.1210    14.2640   -33.2890 hc         1 V3R       0.051700
     21 H8          -2.9490    15.4640   -32.7570 hc         1 V3R       0.051700
     22 H9          -5.3650    18.4110   -32.9920 hc         1 V3R       0.038700
     23 H10         -3.6780    17.9880   -32.6230 hc         1 V3R       0.038700
     24 H11         -4.2510    18.0150   -34.3060 hc         1 V3R       0.038700
     25 H12         -6.3060    16.6040   -31.6870 hn         1 V3R       0.395000
     26 H13         -5.8670    15.0590   -31.8090 hn         1 V3R       0.395000
@<TRIPOS>BOND
     1     1     2 ar  
     2     1     6 ar  
     3     1    10 1   
     4     2     3 ar  
     5     2    11 1   
     6     3     7 ar  
     7     3    14 1   
     8     4     9 1   
     9     4    12 1   
    10     4    13 1   
    11     4    15 1   
    12     5     6 ar  
    13     5     7 ar  
    14     5    16 1   
    15     6    17 1   
    16     7     8 1   
    17     8     9 1   
    18     8    18 1   
    19     8    19 1   
    20     9    20 1   
    21     9    21 1   
    22    12    22 1   
    23    12    23 1   
    24    12    24 1   
    25    13    25 1   
    26    13    26 1   
@<TRIPOS>SUBSTRUCTURE
     1 V3R         1 TEMP              0 ****  ****    0 ROOT
