@<TRIPOS>MOLECULE
V3R
   26    26     1     0     0
SMALL
abcg2


@<TRIPOS>ATOM
      1 C7          -0.2650    12.3480   -35.5960 ca         1 V3R       0.128000
      2 C8          -1.6090    12.1080   -35.8360 ca         1 V3R       0.133000
      3 C9          -2.5510    13.0960   -35.6340 ca         1 V3R      -0.126000
      4 C1          -4.9390    16.2480   -33.2270 c3         1 V3R       0.166500
      5 C5          -0.7960    14.5880   -34.9530 ca         1 V3R      -0.098000
      6 C6           0.1520    13.5890   -35.1560 ca         1 V3R      -0.121000
      7 C4          -2.1520    14.3580   -35.1850 ca         1 V3R      -0.064300
      8 C3          -3.1820    15.4220   -34.9110 c3         1 V3R      -0.031100
      9 C2          -3.7940    15.2760   -33.5120 c3         1 V3R      -0.074400
     10 F1           0.6270    11.3530   -35.8020 f          1 V3R      -0.165000
     11 F           -1.9880    10.8890   -36.2770 f          1 V3R      -0.165000
     12 C           -4.4930    17.7050   -33.2240 c3         1 V3R      -0.089100
     13 N           -5.5090    15.9210   -31.9070 n8         1 V3R      -1.005200
     14 H1          -3.5920    12.8750   -35.8300 ha         1 V3R       0.133000
     15 H2          -5.6860    16.1230   -34.0250 h1         1 V3R       0.011700
     16 H3          -0.4720    15.5620   -34.6090 ha         1 V3R       0.123000
     17 H4           1.2050    13.7630   -34.9800 ha         1 V3R       0.136000
     18 H5          -2.7180    16.4040   -35.0140 hc         1 V3R       0.050200
     19 H6          -3.9780    15.3600   -35.6580 hc         1 V3R       0.050200
     20 H7          -4.1720    14.2540   -33.4000 hc         1 V3R       0.051700
     21 H8          -3.0150    15.4100   -32.7550 hc         1 V3R       0.051700
     22 H9          -5.3270    18.3600   -32.9610 hc         1 V3R       0.038700
     23 H10         -3.6940    17.8580   -32.4930 hc         1 V3R       0.038700
     24 H11         -4.1280    18.0100   -34.2050 hc         1 V3R       0.038700
     25 H12         -6.3040    16.5250   -31.7210 hn         1 V3R       0.395000
     26 H13         -5.8720    14.9730   -31.9180 hn         1 V3R       0.395000
@<TRIPOS>BOND
     1     1     2 ar  
     2     1     6 ar  
     3     1    10 1   
     4     2     3 ar  
     5     2    11 1   
     6     3     7 ar  
     7     3    14 1   
     8     4     9 1   
     9     4    12 1   
    10     4    13 1   
    11     4    15 1   
    12     5     6 ar  
    13     5     7 ar  
    14     5    16 1   
    15     6    17 1   
    16     7     8 1   
    17     8     9 1   
    18     8    18 1   
    19     8    19 1   
    20     9    20 1   
    21     9    21 1   
    22    12    22 1   
    23    12    23 1   
    24    12    24 1   
    25    13    25 1   
    26    13    26 1   
@<TRIPOS>SUBSTRUCTURE
     1 V3R         1 TEMP              0 ****  ****    0 ROOT
