@<TRIPOS>MOLECULE
V3S
   44    46     1     0     0
SMALL
No Charge or Current Charge


@<TRIPOS>ATOM
      1 C5           4.4290     9.1340    21.3250 cc         1 V3S       0.365400
      2 C8           3.5490     7.2790    22.1310 cc         1 V3S       0.325500
      3 C10          2.8100     4.9050    22.5150 ca         1 V3S      -0.145000
      4 C13          1.3820     5.7040    24.7080 ca         1 V3S       0.485900
      5 C15         -0.2330     5.8000    26.6530 c          1 V3S       0.620100
      6 C17         -0.7580     6.8120    27.7310 c6         1 V3S       0.086300
      7 C20         -2.5420     8.7720    28.9980 c6         1 V3S      -0.115400
      8 C21         -2.5290     7.2660    29.3470 c6         1 V3S       0.164600
      9 C2           3.1280     9.4590    23.4880 c3         1 V3S       0.095300
     10 C3           1.6920     9.9340    23.1820 c3         1 V3S      -0.107600
     11 N4           3.6760     8.6500    22.3730 na         1 V3S      -0.340000
     12 N6           4.7670     8.1430    20.5210 nd         1 V3S      -0.361000
     13 N7           4.2220     6.9920    21.0200 nd         1 V3S      -0.359000
     14 C9           2.7870     6.2610    22.9250 ca         1 V3S       0.353000
     15 C11          2.0980     3.9330    23.2370 ca         1 V3S      -0.059000
     16 C12          1.3670     4.3430    24.3610 ca         1 V3S      -0.168000
     17 O16         -0.6770     4.6600    26.5630 o          1 V3S      -0.582100
     18 C18         -0.6420     8.3230    27.3500 c6         1 V3S      -0.102400
     19 C19         -1.1460     9.2260    28.5040 c6         1 V3S      -0.076400
     20 O22         -2.1040     6.5010    28.1980 os         1 V3S      -0.475000
     21 N23          2.0680     6.6330    24.0220 nb         1 V3S      -0.753000
     22 H1           4.6950    10.1780    21.2070 h5         1 V3S       0.062100
     23 H2           3.3800     4.6040    21.6410 ha         1 V3S       0.153000
     24 H3          -0.0750     6.6500    28.5780 h1         1 V3S       0.068700
     25 H4          -3.2950     8.9630    28.2210 hc         1 V3S       0.053700
     26 H5          -2.8400     9.3580    29.8780 hc         1 V3S       0.053700
     27 H6          -3.5370     6.9400    29.6420 h1         1 V3S       0.050200
     28 H7          -1.8470     7.0720    30.1890 h1         1 V3S       0.050200
     29 H8           3.6630    11.1400    24.7760 hc         1 V3S       0.048700
     30 H9           5.0600    10.3000    24.0780 hc         1 V3S       0.048700
     31 H10          4.0800    11.3960    23.0720 hc         1 V3S       0.048700
     32 H11          3.0920     8.8260    24.3820 h1         1 V3S       0.088700
     33 H12          1.2720    10.4730    24.0390 hc         1 V3S       0.048700
     34 H13          1.6790    10.6020    22.3130 hc         1 V3S       0.048700
     35 H14          1.0370     9.0810    22.9660 hc         1 V3S       0.048700
     36 H15          2.1140     2.8880    22.9320 ha         1 V3S       0.126000
     37 H16          0.8150     3.6120    24.9410 ha         1 V3S       0.158000
     38 H17          0.9770     7.2580    25.9290 hn         1 V3S       0.186000
     39 H18          0.3990     8.5900    27.1210 hc         1 V3S       0.063200
     40 H19         -1.2270     8.5190    26.4410 hc         1 V3S       0.063200
     41 H20         -1.1830    10.2740    28.1750 hc         1 V3S       0.048200
     42 H21         -0.4330     9.1870    29.3400 hc         1 V3S       0.048200
     43 N14          0.7170     6.2940    25.7850 ns         1 V3S      -0.308900
     44 C1           4.0400    10.6470    23.8720 c3         1 V3S      -0.107600
@<TRIPOS>BOND
     1     1    11 1   
     2     1    12 2   
     3     1    22 1   
     4     2    11 1   
     5     2    13 2   
     6     2    14 1   
     7     3    14 ar  
     8     3    15 ar  
     9     3    23 1   
    10     4    16 ar  
    11     4    21 ar  
    12     4    43 1   
    13     5     6 1   
    14     5    17 2   
    15     5    43 1   
    16     6    18 1   
    17     6    20 1   
    18     6    24 1   
    19     7     8 1   
    20     7    19 1   
    21     7    25 1   
    22     7    26 1   
    23     8    20 1   
    24     8    27 1   
    25     8    28 1   
    26     9    10 1   
    27     9    11 1   
    28     9    32 1   
    29     9    44 1   
    30    10    33 1   
    31    10    34 1   
    32    10    35 1   
    33    12    13 1   
    34    14    21 ar  
    35    15    16 ar  
    36    15    36 1   
    37    16    37 1   
    38    18    19 1   
    39    18    39 1   
    40    18    40 1   
    41    19    41 1   
    42    19    42 1   
    43    29    44 1   
    44    30    44 1   
    45    31    44 1   
    46    38    43 1   
@<TRIPOS>SUBSTRUCTURE
     1 V3S         1 TEMP              0 ****  ****    0 ROOT
