@<TRIPOS>MOLECULE
V3S
   44    46     1     0     0
SMALL
bcc


@<TRIPOS>ATOM
      1 C5           3.5630     9.2470    20.9570 cc         1 V3S       0.365400
      2 C8           3.1930     7.4160    21.9990 cc         1 V3S       0.325500
      3 C10          3.3380     5.1130    22.8760 ca         1 V3S      -0.228300
      4 C13          1.5350     5.8260    24.7960 ca         1 V3S       0.551200
      5 C15          0.0430     5.7350    26.7770 c          1 V3S       0.687100
      6 C17         -0.8560     6.6420    27.6030 c6         1 V3S       0.063100
      7 C20         -1.3550     9.1190    28.9610 c6         1 V3S      -0.115400
      8 C21         -1.9200     8.7500    27.6020 c6         1 V3S       0.141400
      9 C2           2.4850     9.5800    23.1960 c3         1 V3S       0.066000
     10 C3           1.0130     9.8450    22.9240 c3         1 V3S      -0.107600
     11 N4           3.0580     8.7660    22.1130 na         1 V3S      -0.310700
     12 N6           3.9840     8.2770    20.1940 nd         1 V3S      -0.361000
     13 N7           3.7510     7.1250    20.8510 nd         1 V3S      -0.359000
     14 C9           2.8000     6.3920    22.9710 ca         1 V3S       0.418300
     15 C11          2.9210     4.1740    23.8050 ca         1 V3S      -0.077000
     16 C12          2.0070     4.5140    24.7880 ca         1 V3S      -0.251300
     17 O16          0.2190     4.5770    27.1070 o          1 V3S      -0.582100
     18 C18         -0.2300     6.8860    28.9760 c6         1 V3S      -0.102400
     19 C19         -1.0920     7.8570    29.7750 c6         1 V3S      -0.076400
     20 O22         -1.0730     7.8460    26.9100 os         1 V3S      -0.428600
     21 N23          1.9210     6.7270    23.9040 nb         1 V3S      -0.753000
     22 H1           3.6130    10.2960    20.7140 h5         1 V3S       0.062100
     23 H2           4.0560     4.8670    22.1080 ha         1 V3S       0.171000
     24 H3          -1.8080     6.1050    27.7380 h1         1 V3S       0.068700
     25 H4          -0.4260     9.6830    28.8340 hc         1 V3S       0.053700
     26 H5          -2.0610     9.7750    29.4740 hc         1 V3S       0.053700
     27 H6          -2.0220     9.6250    26.9600 h1         1 V3S       0.050200
     28 H7          -2.9170     8.3050    27.7210 h1         1 V3S       0.050200
     29 H8           2.9070    11.3820    24.2610 hc         1 V3S       0.048700
     30 H9           4.3390    10.6660    23.5260 hc         1 V3S       0.048700
     31 H10          3.1650    11.5450    22.5320 hc         1 V3S       0.048700
     32 H11          2.5750     8.9850    24.1000 h1         1 V3S       0.088700
     33 H12          0.5750    10.3850    23.7630 hc         1 V3S       0.048700
     34 H13          0.8810    10.4520    22.0260 hc         1 V3S       0.048700
     35 H14          0.4620     8.9140    22.7990 hc         1 V3S       0.048700
     36 H15          3.3120     3.1660    23.7690 ha         1 V3S       0.144000
     37 H16          1.6810     3.7890    25.5150 ha         1 V3S       0.176000
     38 H17          0.3820     7.3060    25.5590 hn         1 V3S       0.352500
     39 H18         -0.1240     5.9360    29.5020 hc         1 V3S       0.063200
     40 H19          0.7750     7.3010    28.8450 hc         1 V3S       0.063200
     41 H20         -0.6030     8.1010    30.7200 hc         1 V3S       0.048200
     42 H21         -2.0440     7.3790    30.0270 hc         1 V3S       0.048200
     43 N14          0.6250     6.3370    25.7140 ns         1 V3S      -0.542400
     44 C1           3.2770    10.8650    23.3760 c3         1 V3S      -0.107600
@<TRIPOS>BOND
     1     1    11 1   
     2     1    12 2   
     3     1    22 1   
     4     2    11 1   
     5     2    13 2   
     6     2    14 1   
     7     3    14 ar  
     8     3    15 ar  
     9     3    23 1   
    10     4    16 ar  
    11     4    21 ar  
    12     4    43 1   
    13     5     6 1   
    14     5    17 2   
    15     5    43 1   
    16     6    18 1   
    17     6    20 1   
    18     6    24 1   
    19     7     8 1   
    20     7    19 1   
    21     7    25 1   
    22     7    26 1   
    23     8    20 1   
    24     8    27 1   
    25     8    28 1   
    26     9    10 1   
    27     9    11 1   
    28     9    32 1   
    29     9    44 1   
    30    10    33 1   
    31    10    34 1   
    32    10    35 1   
    33    12    13 1   
    34    14    21 ar  
    35    15    16 ar  
    36    15    36 1   
    37    16    37 1   
    38    18    19 1   
    39    18    39 1   
    40    18    40 1   
    41    19    41 1   
    42    19    42 1   
    43    29    44 1   
    44    30    44 1   
    45    31    44 1   
    46    38    43 1   
@<TRIPOS>SUBSTRUCTURE
     1 V3S         1 TEMP              0 ****  ****    0 ROOT
