@<TRIPOS>MOLECULE
V3T
   31    32     1     0     0
SMALL
bcc


@<TRIPOS>ATOM
      1 C01         24.1680    22.3850     2.8670 c3         1 V3T       0.022600
      2 C03         25.2340    24.5230     3.6170 cc         1 V3T      -0.257600
      3 C04         26.4170    25.1380     3.3270 cd         1 V3T       0.296200
      4 C06         26.4020    23.3170     2.2160 cc         1 V3T       0.359800
      5 C07         26.7880    22.2050     1.2980 c3         1 V3T       0.071700
      6 C09         25.1910    21.0050    -0.1520 c          1 V3T       0.677700
      7 C10         24.3190    21.1340    -1.3640 ca         1 V3T      -0.126600
      8 C11         23.1090    20.4470    -1.3760 ca         1 V3T      -0.107000
      9 C12         22.2680    20.5460    -2.4710 ca         1 V3T      -0.086000
     10 C13         22.6380    21.3100    -3.5740 ca         1 V3T      -0.181600
     11 C14         23.8620    21.9760    -3.5750 ca         1 V3T      -0.086000
     12 C15         24.6950    21.8910    -2.4750 ca         1 V3T      -0.107000
     13 C16         21.7200    21.3960    -4.7230 c          1 V3T       0.581500
     14 N02         25.2380    23.3570     2.9050 na         1 V3T      -0.170900
     15 N05         27.1360    24.3780     2.4510 nd         1 V3T      -0.666000
     16 N08         25.8980    22.1050     0.1610 ns         1 V3T      -0.572900
     17 O17         25.2180    19.9690     0.4940 o          1 V3T      -0.599100
     18 H1          23.5650    22.4830     3.7650 h1         1 V3T       0.057700
     19 H2          23.5290    22.5360     1.9970 h1         1 V3T       0.057700
     20 H3          24.5730    21.3760     2.8350 h1         1 V3T       0.057700
     21 H4          24.4100    24.7990     4.2540 h4         1 V3T       0.175000
     22 H5          26.7850    26.0800     3.7040 h4         1 V3T       0.040100
     23 H6          26.7880    21.2460     1.8160 h1         1 V3T       0.082700
     24 H7          27.8080    22.3940     0.9620 h1         1 V3T       0.082700
     25 H8          22.8180    19.8470    -0.5250 ha         1 V3T       0.147000
     26 H9          21.3170    20.0250    -2.4700 ha         1 V3T       0.147500
     27 H10         24.1650    22.5580    -4.4360 ha         1 V3T       0.147500
     28 H11         25.6490    22.4010    -2.5010 ha         1 V3T       0.147000
     29 H12         20.7820    20.8240    -4.6060 h4         1 V3T      -0.006800
     30 H15         25.7760    22.9400    -0.3900 hn         1 V3T       0.325500
     31 O1          21.9410    22.0300    -5.7270 o          1 V3T      -0.508100
@<TRIPOS>BOND
     1     1    14 1   
     2     1    18 1   
     3     1    19 1   
     4     1    20 1   
     5     2     3 2   
     6     2    14 1   
     7     2    21 1   
     8     3    15 1   
     9     3    22 1   
    10     4     5 1   
    11     4    14 1   
    12     4    15 2   
    13     5    16 1   
    14     5    23 1   
    15     5    24 1   
    16     6     7 1   
    17     6    16 1   
    18     6    17 2   
    19     7     8 ar  
    20     7    12 ar  
    21     8     9 ar  
    22     8    25 1   
    23     9    10 ar  
    24     9    26 1   
    25    10    11 ar  
    26    10    13 1   
    27    11    12 ar  
    28    11    27 1   
    29    12    28 1   
    30    13    29 1   
    31    13    31 2   
    32    16    30 1   
@<TRIPOS>SUBSTRUCTURE
     1 V3T         1 TEMP              0 ****  ****    0 ROOT
