@<TRIPOS>MOLECULE
V3T
   31    32     1     0     0
SMALL
No Charge or Current Charge


@<TRIPOS>ATOM
      1 C01         24.3550    22.3620     3.3740 c3         1 V3T       0.051900
      2 C03         25.4370    24.6390     3.6820 cc         1 V3T      -0.225000
      3 C04         26.5260    25.2530     3.1200 cd         1 V3T       0.230900
      4 C06         26.4280    23.2980     2.2100 cc         1 V3T       0.359800
      5 C07         26.7270    22.0930     1.3430 c3         1 V3T       0.071700
      6 C09         24.8860    21.0690    -0.0660 c          1 V3T       0.610700
      7 C10         24.1120    21.1640    -1.3680 ca         1 V3T      -0.126600
      8 C11         23.0800    20.2360    -1.6310 ca         1 V3T      -0.089000
      9 C12         22.3410    20.2930    -2.8250 ca         1 V3T      -0.068000
     10 C13         22.6170    21.2830    -3.7870 ca         1 V3T      -0.181600
     11 C14         23.6450    22.2150    -3.5350 ca         1 V3T      -0.068000
     12 C15         24.3840    22.1580    -2.3410 ca         1 V3T      -0.089000
     13 C16         21.8170    21.3340    -5.0630 c          1 V3T       0.581500
     14 N02         25.3720    23.3910     3.1010 na         1 V3T      -0.149500
     15 N05         27.1360    24.4200     2.2070 nd         1 V3T      -0.666000
     16 N08         25.8820    22.0010     0.1350 ns         1 V3T      -0.505900
     17 O17         24.6450    20.2120     0.7730 o          1 V3T      -0.599100
     18 H1          23.7660    22.6460     4.2550 h1         1 V3T       0.057700
     19 H2          23.6860    22.2680     2.5100 h1         1 V3T       0.057700
     20 H3          24.8420    21.3980     3.5650 h1         1 V3T       0.057700
     21 H4          24.7320    24.9910     4.4250 h4         1 V3T       0.157000
     22 H5          26.9020    26.2490     3.3220 h4         1 V3T       0.040100
     23 H6          26.6230    21.1850     1.9490 h1         1 V3T       0.082700
     24 H7          27.7760    22.1460     1.0260 h1         1 V3T       0.082700
     25 H8          22.8440    19.4590    -0.9060 ha         1 V3T       0.129000
     26 H9          21.5510    19.5640    -2.9990 ha         1 V3T       0.129500
     27 H10         23.8750    22.9890    -4.2660 ha         1 V3T       0.129500
     28 H11         25.1670    22.8980    -2.1910 ha         1 V3T       0.129000
     29 H12         21.0270    20.5570    -5.1720 h4         1 V3T      -0.006800
     30 H15         26.0240    22.6840    -0.5990 hn         1 V3T       0.325500
     31 O1          22.0020    22.1670    -5.9440 o          1 V3T      -0.508100
@<TRIPOS>BOND
     1     1    14 1   
     2     1    18 1   
     3     1    19 1   
     4     1    20 1   
     5     2     3 2   
     6     2    14 1   
     7     2    21 1   
     8     3    15 1   
     9     3    22 1   
    10     4     5 1   
    11     4    14 1   
    12     4    15 2   
    13     5    16 1   
    14     5    23 1   
    15     5    24 1   
    16     6     7 1   
    17     6    16 1   
    18     6    17 2   
    19     7     8 ar  
    20     7    12 ar  
    21     8     9 ar  
    22     8    25 1   
    23     9    10 ar  
    24     9    26 1   
    25    10    11 ar  
    26    10    13 1   
    27    11    12 ar  
    28    11    27 1   
    29    12    28 1   
    30    13    29 1   
    31    13    31 2   
    32    16    30 1   
@<TRIPOS>SUBSTRUCTURE
     1 V3T         1 TEMP              0 ****  ****    0 ROOT
