@<TRIPOS>MOLECULE
V3U
   22    22     1     0     0
SMALL
No Charge or Current Charge


@<TRIPOS>ATOM
      1 C4         -25.9210    28.4840     7.7960 cc         1 V3U      -0.024400
      2 C5         -27.1440    28.2050     7.2210 cd         1 V3U      -0.288000
      3 C6         -28.2480    29.0970     7.4200 cd         1 V3U       0.067700
      4 C7         -28.0340    30.2140     8.1930 cc         1 V3U      -0.290200
      5 C8         -26.7530    30.5470     8.8220 c          1 V3U       0.547200
      6 N1         -25.7130    29.6220     8.5780 n          1 V3U      -0.274000
      7 C3         -24.3730    29.8780     9.1650 c3         1 V3U       0.049000
      8 C1         -21.7000    29.0460    10.3870 c3         1 V3U       0.138900
      9 O1         -22.8790    29.5070    11.0760 os         1 V3U      -0.446000
     10 C2         -24.1460    29.1230    10.4960 c3         1 V3U       0.138600
     11 Br1        -29.9290    28.7380     6.6450 br         1 V3U      -0.074700
     12 O2         -26.6090    31.5490     9.5090 o          1 V3U      -0.547000
     13 H8         -25.0320    27.8660     7.6970 h4         1 V3U       0.202000
     14 H9         -27.2710    27.3090     6.6170 ha         1 V3U       0.215000
     15 H10        -28.8300    30.9240     8.3810 ha         1 V3U       0.225000
     16 H7         -23.6150    29.5690     8.4350 h1         1 V3U       0.075200
     17 H6         -24.2340    30.9540     9.3330 h1         1 V3U       0.075200
     18 H1         -20.8010    29.3100    10.9580 h1         1 V3U       0.032367
     19 H2         -21.7180    27.9550    10.2680 h1         1 V3U       0.032367
     20 H3         -21.6120    29.5050     9.3940 h1         1 V3U       0.032367
     21 H5         -24.9610    29.3810    11.1850 h1         1 V3U       0.057200
     22 H4         -24.1890    28.0400    10.3220 h1         1 V3U       0.057200
@<TRIPOS>BOND
     1     1     2 2   
     2     1     6 1   
     3     1    13 1   
     4     2     3 1   
     5     2    14 1   
     6     3     4 2   
     7     3    11 1   
     8     4     5 1   
     9     4    15 1   
    10     5     6 1   
    11     5    12 2   
    12     6     7 1   
    13     7    10 1   
    14     7    16 1   
    15     7    17 1   
    16     8     9 1   
    17     8    18 1   
    18     8    19 1   
    19     8    20 1   
    20     9    10 1   
    21    10    21 1   
    22    10    22 1   
@<TRIPOS>SUBSTRUCTURE
     1 V3U         1 TEMP              0 ****  ****    0 ROOT
