@<TRIPOS>MOLECULE
V3U
   22    22     1     0     0
SMALL
abcg2


@<TRIPOS>ATOM
      1 C4         -25.8330    28.6040     7.6920 cc         1 V3U      -0.024400
      2 C5         -27.0410    28.2410     7.1800 cd         1 V3U      -0.288000
      3 C6         -28.1500    29.0390     7.5290 cd         1 V3U       0.067700
      4 C7         -28.0330    30.1230     8.3410 cc         1 V3U      -0.290200
      5 C8         -26.7560    30.5000     8.8860 c          1 V3U       0.547200
      6 N1         -25.6790    29.6820     8.5040 n          1 V3U      -0.274000
      7 C3         -24.3530    29.9830     9.0500 c3         1 V3U       0.049000
      8 C1         -21.8110    28.8890    10.4390 c3         1 V3U       0.138900
      9 O1         -22.9080    29.6140    10.9840 os         1 V3U      -0.446000
     10 C2         -24.1580    29.2920    10.4020 c3         1 V3U       0.138600
     11 BR1        -29.8600    28.5610     6.8260 br         1 V3U      -0.074700
     12 O2         -26.5740    31.4650     9.6360 o          1 V3U      -0.547000
     13 H8         -24.9310    28.0500     7.4730 h4         1 V3U       0.202000
     14 H9         -27.1280    27.3830     6.5340 ha         1 V3U       0.215000
     15 H10        -28.8790    30.7360     8.6130 ha         1 V3U       0.225000
     16 H7         -23.6130    29.6490     8.3260 h1         1 V3U       0.075200
     17 H6         -24.2730    31.0600     9.1710 h1         1 V3U       0.075200
     18 H1         -20.9330    29.1520    11.0260 h1         1 V3U       0.032367
     19 H2         -21.9860    27.8100    10.5110 h1         1 V3U       0.032367
     20 H3         -21.6290    29.1490     9.3920 h1         1 V3U       0.032367
     21 H5         -24.9260    29.6350    11.0970 h1         1 V3U       0.057200
     22 H4         -24.2590    28.2070    10.2830 h1         1 V3U       0.057200
@<TRIPOS>BOND
     1     1     2 2   
     2     1     6 1   
     3     1    13 1   
     4     2     3 1   
     5     2    14 1   
     6     3     4 2   
     7     3    11 1   
     8     4     5 1   
     9     4    15 1   
    10     5     6 1   
    11     5    12 2   
    12     6     7 1   
    13     7    10 1   
    14     7    16 1   
    15     7    17 1   
    16     8     9 1   
    17     8    18 1   
    18     8    19 1   
    19     8    20 1   
    20     9    10 1   
    21    10    21 1   
    22    10    22 1   
@<TRIPOS>SUBSTRUCTURE
     1 V3U         1 TEMP              0 ****  ****    0 ROOT
