@<TRIPOS>MOLECULE
V3V
   54    58     1     0     0
SMALL
No Charge or Current Charge


@<TRIPOS>ATOM
      1 O3          25.7580   -46.0950   -14.3740 o          1 V3V      -0.707000
      2 C23         23.9180   -37.0080   -13.7470 ca         1 V3V      -0.080000
      3 C1          20.0790   -31.5830    -6.9710 ca         1 V3V       0.169000
      4 N2          20.2390   -35.5360   -11.1900 nu         1 V3V      -0.847400
      5 C22         24.9690   -36.5510   -14.5590 ca         1 V3V      -0.116000
      6 O2          25.2010   -44.3570   -15.5110 o          1 V3V      -0.707000
      7 C2          19.5170   -31.9230    -8.2160 ca         1 V3V      -0.133000
      8 C3          19.9920   -33.0880    -8.8240 ca         1 V3V       0.039100
      9 C21         24.8580   -36.6180   -15.9560 ca         1 V3V      -0.103000
     10 N1          21.2390   -34.9940    -9.1000 nc         1 V3V      -0.562100
     11 C6          20.9910   -36.5200   -11.6890 c2         1 V3V       0.831100
     12 C5          20.3980   -34.7500   -10.1150 cd         1 V3V       0.778500
     13 C4          20.9590   -33.8980    -8.2790 ca         1 V3V       0.073400
     14 C7          22.1560   -38.5370   -10.9960 c2         1 V3V       0.150800
     15 C8          22.6540   -39.2080    -9.7280 c3         1 V3V      -0.073900
     16 C20         23.6920   -37.1400   -16.5390 ca         1 V3V      -0.114000
     17 C12         24.4040   -44.2760   -10.7780 ca         1 V3V       0.316900
     18 C11         23.7770   -42.4220   -12.0010 ca         1 V3V       0.423900
     19 C10         22.6690   -40.2920   -12.7930 c          1 V3V       0.622300
     20 C9          22.1620   -38.9640   -12.2870 ce         1 V3V      -0.270400
     21 C13         24.8680   -44.9360   -11.9270 ca         1 V3V      -0.153000
     22 C19         22.6360   -37.6000   -15.7320 ca         1 V3V       0.155000
     23 C17         21.6130   -38.0400   -13.3990 c6         1 V3V       0.258000
     24 O1          19.6310   -33.6320    -9.9950 os         1 V3V      -0.318700
     25 C18         22.7420   -37.5430   -14.3210 ca         1 V3V      -0.060300
     26 C16         24.2240   -43.0010   -13.2060 ca         1 V3V      -0.136000
     27 C15         25.2880   -44.9680   -14.4560 c          1 V3V       0.713600
     28 C14         24.7880   -44.2970   -13.1860 ca         1 V3V      -0.095600
     29 C24         21.5260   -33.5690    -7.0380 ca         1 V3V      -0.029000
     30 C25         21.0770   -32.3970    -6.3830 ca         1 V3V      -0.163000
     31 N3          21.5930   -37.2980   -10.7720 nu         1 V3V      -0.827200
     32 N6          20.8660   -36.8670   -12.9000 n2         1 V3V      -0.621900
     33 O4          22.5910   -40.5970   -13.9740 o          1 V3V      -0.556100
     34 N5          23.8670   -43.0360   -10.8050 nb         1 V3V      -0.773000
     35 H16         24.0180   -36.9450   -12.6660 ha         1 V3V       0.116000
     36 H4          19.6230   -35.1320   -11.8760 hn         1 V3V       0.512000
     37 H15         25.8690   -36.1430   -14.1040 ha         1 V3V       0.110000
     38 H5          18.7500   -31.3090    -8.6810 ha         1 V3V       0.145000
     39 H14         25.6710   -36.2630   -16.5860 ha         1 V3V       0.108000
     40 H8          22.5120   -38.5810    -8.8390 hc         1 V3V       0.062033
     41 H7          22.1190   -40.1470    -9.5420 hc         1 V3V       0.062033
     42 H6          23.7260   -39.4270    -9.7920 hc         1 V3V       0.062033
     43 H13         23.6030   -37.1870   -17.6210 ha         1 V3V       0.121000
     44 H9          24.4630   -44.7550    -9.8020 h4         1 V3V      -0.009900
     45 H10         25.2900   -45.9330   -11.8310 ha         1 V3V       0.137000
     46 H12         20.8980   -38.6400   -13.9800 h1         1 V3V       0.111700
     47 H11         24.1520   -42.4570   -14.1410 ha         1 V3V       0.169000
     48 H17         22.2910   -34.2010    -6.5950 ha         1 V3V       0.143000
     49 H18         21.5000   -32.1190    -5.4210 ha         1 V3V       0.133000
     50 H1          21.6060   -36.8950    -9.8400 hn         1 V3V       0.490000
     51 H2          23.1810   -40.8240   -10.9080 hn         1 V3V       0.146000
     52 N4          23.2070   -41.1500   -11.8620 ns         1 V3V      -0.319900
     53 Cl1         21.1970   -38.2290   -16.5380 cl         1 V3V      -0.200000
     54 F1          19.6630   -30.4690    -6.3310 f          1 V3V      -0.180000
@<TRIPOS>BOND
     1     1    27 1   
     2     2     5 ar  
     3     2    25 ar  
     4     2    35 1   
     5     3     7 ar  
     6     3    30 ar  
     7     3    54 1   
     8     4    11 1   
     9     4    12 1   
    10     4    36 1   
    11     5     9 ar  
    12     5    37 1   
    13     6    27 1   
    14     7     8 ar  
    15     7    38 1   
    16     8    13 ar  
    17     8    24 1   
    18     9    16 ar  
    19     9    39 1   
    20    10    12 2   
    21    10    13 1   
    22    11    31 1   
    23    11    32 2   
    24    12    24 1   
    25    13    29 ar  
    26    14    15 1   
    27    14    20 2   
    28    14    31 1   
    29    15    40 1   
    30    15    41 1   
    31    15    42 1   
    32    16    22 ar  
    33    16    43 1   
    34    17    21 ar  
    35    17    34 ar  
    36    17    44 1   
    37    18    26 ar  
    38    18    34 ar  
    39    18    52 1   
    40    19    20 1   
    41    19    33 2   
    42    19    52 1   
    43    20    23 1   
    44    21    28 ar  
    45    21    45 1   
    46    22    25 ar  
    47    22    53 1   
    48    23    25 1   
    49    23    32 1   
    50    23    46 1   
    51    26    28 ar  
    52    26    47 1   
    53    27    28 1   
    54    29    30 ar  
    55    29    48 1   
    56    30    49 1   
    57    31    50 1   
    58    51    52 1   
@<TRIPOS>SUBSTRUCTURE
     1 V3V         1 TEMP              0 ****  ****    0 ROOT
