@<TRIPOS>MOLECULE
V3V
   54    58     1     0     0
SMALL
abcg2


@<TRIPOS>ATOM
      1 O3          24.6930   -46.0160   -15.7410 o          1 V3V      -0.707000
      2 C23         25.0320   -37.3680   -12.1630 ca         1 V3V      -0.080000
      3 C1          18.8520   -31.1420    -9.1210 ca         1 V3V       0.169000
      4 N2          21.2600   -36.3020    -9.3640 nu         1 V3V      -0.847400
      5 C22         26.1380   -36.6030   -12.5020 ca         1 V3V      -0.116000
      6 O2          25.2080   -43.8570   -15.9990 o          1 V3V      -0.707000
      7 C2          19.1010   -32.2770    -8.3670 ca         1 V3V      -0.133000
      8 C3          19.7650   -33.2730    -9.0470 ca         1 V3V       0.039100
      9 C21         26.0200   -35.5930   -13.4440 ca         1 V3V      -0.103000
     10 N1          20.8110   -34.3710   -10.7210 nc         1 V3V      -0.562100
     11 C6          21.8840   -37.1620   -10.2540 c2         1 V3V       0.831100
     12 C5          20.7660   -35.0710    -9.6450 cd         1 V3V       0.778500
     13 C4          20.1700   -33.1910   -10.3740 ca         1 V3V       0.073400
     14 C7          22.9930   -39.2650   -10.3080 c2         1 V3V       0.150800
     15 C8          23.4740   -40.3730    -9.4260 c3         1 V3V      -0.073900
     16 C20         24.7920   -35.3540   -14.0430 ca         1 V3V      -0.114000
     17 C12         22.4050   -45.0890   -12.3730 ca         1 V3V       0.316900
     18 C11         22.9150   -42.8850   -12.6420 ca         1 V3V       0.423900
     19 C10         23.1360   -40.3990   -12.5440 c          1 V3V       0.622300
     20 C9          22.8750   -39.2560   -11.6510 ce         1 V3V      -0.270400
     21 C13         23.1470   -45.4610   -13.4790 ca         1 V3V      -0.153000
     22 C19         23.6970   -36.1240   -13.6840 ca         1 V3V       0.155000
     23 C17         22.5540   -37.9440   -12.3300 c6         1 V3V       0.258000
     24 O1          20.1500   -34.4910    -8.5870 os         1 V3V      -0.318700
     25 C18         23.7850   -37.1470   -12.7400 ca         1 V3V      -0.060300
     26 C16         23.6850   -43.1530   -13.7740 ca         1 V3V      -0.136000
     27 C15         24.6500   -44.8120   -15.4310 c          1 V3V       0.713600
     28 C14         23.8060   -44.4680   -14.1980 ca         1 V3V      -0.095600
     29 C24         19.9010   -32.0390   -11.0980 ca         1 V3V      -0.029000
     30 C25         19.2320   -31.0060   -10.4510 ca         1 V3V      -0.163000
     31 N3          22.6570   -38.1120    -9.6300 nu         1 V3V      -0.827200
     32 N6          21.7090   -37.0930   -11.5040 n2         1 V3V      -0.621900
     33 O4          23.6440   -40.2280   -13.6420 o          1 V3V      -0.556100
     34 N5          22.2880   -43.8350   -11.9560 nb         1 V3V      -0.773000
     35 H16         25.1440   -38.1630   -11.4380 ha         1 V3V       0.116000
     36 H4          21.1440   -36.6130    -8.4100 hn         1 V3V       0.512000
     37 H15         27.0930   -36.8020   -12.0330 ha         1 V3V       0.110000
     38 H5          18.7970   -32.3610    -7.3320 ha         1 V3V       0.145000
     39 H14         26.8760   -34.9930   -13.7210 ha         1 V3V       0.108000
     40 H8          24.0790   -39.9640    -8.6150 hc         1 V3V       0.062033
     41 H7          22.6360   -40.9010    -8.9670 hc         1 V3V       0.062033
     42 H6          24.0860   -41.0920    -9.9620 hc         1 V3V       0.062033
     43 H13         24.6870   -34.5740   -14.7850 ha         1 V3V       0.121000
     44 H9          21.8790   -45.8350   -11.7880 h4         1 V3V      -0.009900
     45 H10         23.2100   -46.4980   -13.7740 ha         1 V3V       0.137000
     46 H12         21.9900   -38.1590   -13.2410 h1         1 V3V       0.111700
     47 H11         24.1810   -42.3650   -14.3150 ha         1 V3V       0.169000
     48 H17         20.2010   -31.9380   -12.1320 ha         1 V3V       0.143000
     49 H18         19.0040   -30.0890   -10.9770 ha         1 V3V       0.133000
     50 H1          22.7980   -38.0800    -8.6320 hn         1 V3V       0.490000
     51 H2          22.1580   -41.6380   -11.2570 hn         1 V3V       0.146000
     52 N4          22.7280   -41.6180   -12.0900 ns         1 V3V      -0.319900
     53 CL1         22.1830   -35.7830   -14.4690 cl         1 V3V      -0.200000
     54 F1          18.2120   -30.1200    -8.5300 f          1 V3V      -0.180000
@<TRIPOS>BOND
     1     1    27 1   
     2     2     5 ar  
     3     2    25 ar  
     4     2    35 1   
     5     3     7 ar  
     6     3    30 ar  
     7     3    54 1   
     8     4    11 1   
     9     4    12 1   
    10     4    36 1   
    11     5     9 ar  
    12     5    37 1   
    13     6    27 1   
    14     7     8 ar  
    15     7    38 1   
    16     8    13 ar  
    17     8    24 1   
    18     9    16 ar  
    19     9    39 1   
    20    10    12 2   
    21    10    13 1   
    22    11    31 1   
    23    11    32 2   
    24    12    24 1   
    25    13    29 ar  
    26    14    15 1   
    27    14    20 2   
    28    14    31 1   
    29    15    40 1   
    30    15    41 1   
    31    15    42 1   
    32    16    22 ar  
    33    16    43 1   
    34    17    21 ar  
    35    17    34 ar  
    36    17    44 1   
    37    18    26 ar  
    38    18    34 ar  
    39    18    52 1   
    40    19    20 1   
    41    19    33 2   
    42    19    52 1   
    43    20    23 1   
    44    21    28 ar  
    45    21    45 1   
    46    22    25 ar  
    47    22    53 1   
    48    23    25 1   
    49    23    32 1   
    50    23    46 1   
    51    26    28 ar  
    52    26    47 1   
    53    27    28 1   
    54    29    30 ar  
    55    29    48 1   
    56    30    49 1   
    57    31    50 1   
    58    51    52 1   
@<TRIPOS>SUBSTRUCTURE
     1 V3V         1 TEMP              0 ****  ****    0 ROOT
