@<TRIPOS>MOLECULE
V3W
   35    36     1     0     0
SMALL
abcg2


@<TRIPOS>ATOM
      1 C01         21.5900    21.8430    -4.0120 c          1 V3W       0.583500
      2 C02         22.5550    21.6900    -2.9110 ca         1 V3W      -0.191600
      3 C03         23.1080    22.8010    -2.2750 ca         1 V3W      -0.063000
      4 C04         24.0070    22.6270    -1.2400 ca         1 V3W      -0.097500
      5 C05         24.3480    21.3420    -0.8190 ca         1 V3W      -0.111600
      6 C06         25.3720    21.1840     0.2670 c          1 V3W       0.608700
      7 C08         25.8250    20.8040     2.6210 c6         1 V3W       0.093000
      8 C09         25.6330    22.0530     3.4750 c6         1 V3W      -0.119900
      9 C10         24.1810    22.1880     3.9140 c6         1 V3W       0.174300
     10 C13         23.2500    22.1330     2.7030 c6         1 V3W      -0.119900
     11 C14         23.5200    20.8840     1.8740 c6         1 V3W       0.093000
     12 C16         23.8020    20.2320    -1.4530 ca         1 V3W      -0.097500
     13 C17         22.9120    20.4090    -2.5010 ca         1 V3W      -0.063000
     14 N07         24.9200    20.8290     1.4830 n          1 V3W      -0.394800
     15 O15         26.5500    21.3720     0.0000 o          1 V3W      -0.581100
     16 H1          21.2290    20.8900    -4.4390 h4         1 V3W      -0.009800
     17 H4          22.8350    23.8000    -2.5890 ha         1 V3W       0.127000
     18 H5          24.4360    23.4900    -0.7460 ha         1 V3W       0.127500
     19 H6          25.6040    19.9080     3.2090 h1         1 V3W       0.061200
     20 H7          26.8500    20.7200     2.2730 h1         1 V3W       0.061200
     21 H8          26.2860    21.9970     4.3490 hc         1 V3W       0.061200
     22 H9          25.9310    22.9350     2.9000 hc         1 V3W       0.061200
     23 H10         23.9390    21.3310     4.5650 h1         1 V3W       0.028700
     24 H11         22.9480    24.4170     5.9780 h1         1 V3W       0.029033
     25 H12         21.9860    23.6130     4.7330 h1         1 V3W       0.029033
     26 H13         22.7060    22.6630     6.0440 h1         1 V3W       0.029033
     27 H14         23.4020    23.0210     2.0800 hc         1 V3W       0.061200
     28 H15         22.2010    22.1250     3.0100 hc         1 V3W       0.061200
     29 H16         22.8770    20.8630     0.9980 h1         1 V3W       0.061200
     30 H17         23.2920    19.9860     2.4550 h1         1 V3W       0.061200
     31 H18         24.0630    19.2330    -1.1270 ha         1 V3W       0.127500
     32 H19         22.4850    19.5460    -2.9980 ha         1 V3W       0.127000
     33 O1          21.2000    22.9040    -4.4380 o          1 V3W      -0.512100
     34 O11         24.0640    23.3860     4.6430 os         1 V3W      -0.451000
     35 C12         22.8700    23.5150     5.3720 c3         1 V3W       0.146900
@<TRIPOS>BOND
     1     1     2 1   
     2     1    16 1   
     3     1    33 2   
     4     2     3 ar  
     5     2    13 ar  
     6     3     4 ar  
     7     3    17 1   
     8     4     5 ar  
     9     4    18 1   
    10     5     6 1   
    11     5    12 ar  
    12     6    14 1   
    13     6    15 2   
    14     7     8 1   
    15     7    14 1   
    16     7    19 1   
    17     7    20 1   
    18     8     9 1   
    19     8    21 1   
    20     8    22 1   
    21     9    10 1   
    22     9    23 1   
    23     9    34 1   
    24    10    11 1   
    25    10    27 1   
    26    10    28 1   
    27    11    14 1   
    28    11    29 1   
    29    11    30 1   
    30    12    13 ar  
    31    12    31 1   
    32    13    32 1   
    33    24    35 1   
    34    25    35 1   
    35    26    35 1   
    36    34    35 1   
@<TRIPOS>SUBSTRUCTURE
     1 V3W         1 TEMP              0 ****  ****    0 ROOT
