@<TRIPOS>MOLECULE
V3W
   35    36     1     0     0
SMALL
No Charge or Current Charge


@<TRIPOS>ATOM
      1 C01         21.6770    21.4320    -4.4750 c          1 V3W       0.583500
      2 C02         22.5860    21.5190    -3.2780 ca         1 V3W      -0.191600
      3 C03         23.4690    22.6060    -3.1120 ca         1 V3W      -0.063000
      4 C04         24.3120    22.6720    -1.9890 ca         1 V3W      -0.097500
      5 C05         24.2810    21.6650    -1.0010 ca         1 V3W      -0.111600
      6 C06         25.2210    21.7510     0.1850 c          1 V3W       0.608700
      7 C08         25.8180    20.9260     2.5020 c6         1 V3W       0.093000
      8 C09         25.6840    21.9770     3.6240 c6         1 V3W      -0.119900
      9 C10         24.2460    22.0030     4.1850 c6         1 V3W       0.174300
     10 C13         23.2340    22.2280     3.0320 c6         1 V3W      -0.119900
     11 C14         23.4260    21.1900     1.9000 c6         1 V3W       0.093000
     12 C16         23.4130    20.5640    -1.1870 ca         1 V3W      -0.097500
     13 C17         22.5700    20.4950    -2.3100 ca         1 V3W      -0.063000
     14 N07         24.8330    21.1580     1.4120 n          1 V3W      -0.394800
     15 O15         26.3330    22.2500     0.0570 o          1 V3W      -0.581100
     16 H1          21.0210    20.5350    -4.5230 h4         1 V3W      -0.009800
     17 H4          23.5060    23.4030    -3.8530 ha         1 V3W       0.127000
     18 H5          24.9860    23.5190    -1.8820 ha         1 V3W       0.127500
     19 H6          25.6500    19.9230     2.9210 h1         1 V3W       0.061200
     20 H7          26.8440    20.9350     2.1060 h1         1 V3W       0.061200
     21 H8          26.3950    21.7520     4.4300 hc         1 V3W       0.061200
     22 H9          25.9500    22.9680     3.2320 hc         1 V3W       0.061200
     23 H10         24.0380    21.0320     4.6600 h1         1 V3W       0.028700
     24 H11         23.0260    23.8580     6.7480 h1         1 V3W       0.029033
     25 H12         22.0840    23.3990     5.3180 h1         1 V3W       0.029033
     26 H13         22.7010    22.1420     6.4220 h1         1 V3W       0.029033
     27 H14         23.3590    23.2400     2.6230 hc         1 V3W       0.061200
     28 H15         22.2040    22.1590     3.4030 hc         1 V3W       0.061200
     29 H16         22.7280    21.4400     1.0910 h1         1 V3W       0.061200
     30 H17         23.1540    20.1900     2.2680 h1         1 V3W       0.061200
     31 H18         23.4000    19.7450    -0.4710 ha         1 V3W       0.127500
     32 H19         21.9070    19.6390    -2.4280 ha         1 V3W       0.127000
     33 O1          21.6400    22.2820    -5.3600 o          1 V3W      -0.512100
     34 O11         24.1510    23.0310     5.1930 os         1 V3W      -0.451000
     35 C12         22.9300    23.1080     5.9530 c3         1 V3W       0.146900
@<TRIPOS>BOND
     1     1     2 1   
     2     1    16 1   
     3     1    33 2   
     4     2     3 ar  
     5     2    13 ar  
     6     3     4 ar  
     7     3    17 1   
     8     4     5 ar  
     9     4    18 1   
    10     5     6 1   
    11     5    12 ar  
    12     6    14 1   
    13     6    15 2   
    14     7     8 1   
    15     7    14 1   
    16     7    19 1   
    17     7    20 1   
    18     8     9 1   
    19     8    21 1   
    20     8    22 1   
    21     9    10 1   
    22     9    23 1   
    23     9    34 1   
    24    10    11 1   
    25    10    27 1   
    26    10    28 1   
    27    11    14 1   
    28    11    29 1   
    29    11    30 1   
    30    12    13 ar  
    31    12    31 1   
    32    13    32 1   
    33    24    35 1   
    34    25    35 1   
    35    26    35 1   
    36    34    35 1   
@<TRIPOS>SUBSTRUCTURE
     1 V3W         1 TEMP              0 ****  ****    0 ROOT
