@<TRIPOS>MOLECULE
V3X
   43    44     1     0     0
SMALL
abcg2


@<TRIPOS>ATOM
      1 CA          48.4340    85.1110   129.0350 c3         1 V3X       0.011300
      2 C           48.8530    86.5510   128.7500 c          1 V3X       0.600100
      3 O           49.3090    86.8370   127.6500 o          1 V3X      -0.627100
      4 CB          46.9570    84.8310   128.6770 c3         1 V3X      -0.038700
      5 CG1         46.6990    85.0170   127.1850 c3         1 V3X      -0.093600
      6 CG2         45.9530    85.6360   129.4980 c3         1 V3X      -0.093600
      7 CAA         43.0080    90.2630   129.9770 ca         1 V3X      -0.188000
      8 CAB         42.4110    89.9400   128.7470 ca         1 V3X      -0.068000
      9 CAC         43.1600    89.5020   127.6750 ca         1 V3X      -0.146000
     10 CAD         44.5390    89.3900   127.8590 ca         1 V3X      -0.031200
     11 CAE         45.1820    89.7010   129.0790 ca         1 V3X      -0.137800
     12 CAF         44.3670    90.1400   130.1230 ca         1 V3X       0.218000
     13 CAH         46.7260    89.0450   127.6110 cc         1 V3X      -0.159100
     14 CAI         46.5880    89.4700   128.9030 cd         1 V3X      -0.123400
     15 CAJ         47.6720    89.6720   129.9160 c3         1 V3X      -0.012200
     16 CAK         48.9370    88.8540   129.6430 c3         1 V3X       0.113700
     17 CAL         50.0760    89.2320   130.5790 c3         1 V3X       0.143600
     18 NAG         45.5090    88.9950   126.9920 na         1 V3X      -0.218700
     19 NAM         48.6550    87.4360   129.7330 ns         1 V3X      -0.486900
     20 S1          48.7130    84.5820   130.7630 sh         1 V3X      -0.442800
     21 H1          49.0530    84.4780   128.3970 h1         1 V3X       0.092700
     22 H2          46.8060    83.7700   128.9020 hc         1 V3X       0.060700
     23 H3          47.4120    84.4580   126.5790 hc         1 V3X       0.042200
     24 H4          45.6990    84.6570   126.9390 hc         1 V3X       0.042200
     25 H5          46.7500    86.0650   126.8860 hc         1 V3X       0.042200
     26 H6          46.0850    85.5050   130.5730 hc         1 V3X       0.042200
     27 H7          46.0180    86.7030   129.2780 hc         1 V3X       0.042200
     28 H8          44.9410    85.3110   129.2560 hc         1 V3X       0.042200
     29 H9          42.4050    90.6090   130.8060 ha         1 V3X       0.129000
     30 H10         41.3390    90.0430   128.6450 ha         1 V3X       0.114000
     31 H11         42.6980    89.2570   126.7280 ha         1 V3X       0.117000
     32 H12         47.6140    88.7500   127.0750 h4         1 V3X       0.231000
     33 H13         47.9540    90.7290   129.9580 hc         1 V3X       0.065700
     34 H14         47.2960    89.4250   130.9100 hc         1 V3X       0.065700
     35 H15         49.2920    89.0560   128.6320 h1         1 V3X       0.078700
     36 H16         50.9630    88.6530   130.2970 h1         1 V3X       0.028700
     37 H17         50.3180    90.2920   130.4230 h1         1 V3X       0.028700
     38 H18         45.3560    88.6960   126.0430 hn         1 V3X       0.353000
     39 H19         48.3280    87.0860   130.6220 hn         1 V3X       0.344500
     40 H20         50.4390    89.1180   132.4820 ho         1 V3X       0.446000
     41 H21         50.0460    84.7010   130.7650 hs         1 V3X       0.214800
     42 OAV         49.6840    88.9720   131.9060 oh         1 V3X      -0.662000
     43 F1          44.9300    90.4540   131.3050 f          1 V3X      -0.179000
@<TRIPOS>BOND
     1     1     2 1   
     2     1     4 1   
     3     1    20 1   
     4     1    21 1   
     5     2     3 2   
     6     2    19 1   
     7     4     5 1   
     8     4     6 1   
     9     4    22 1   
    10     5    23 1   
    11     5    24 1   
    12     5    25 1   
    13     6    26 1   
    14     6    27 1   
    15     6    28 1   
    16     7     8 ar  
    17     7    12 ar  
    18     7    29 1   
    19     8     9 ar  
    20     8    30 1   
    21     9    10 ar  
    22     9    31 1   
    23    10    11 ar  
    24    10    18 1   
    25    11    12 ar  
    26    11    14 1   
    27    12    43 1   
    28    13    14 2   
    29    13    18 1   
    30    13    32 1   
    31    14    15 1   
    32    15    16 1   
    33    15    33 1   
    34    15    34 1   
    35    16    17 1   
    36    16    19 1   
    37    16    35 1   
    38    17    36 1   
    39    17    37 1   
    40    17    42 1   
    41    18    38 1   
    42    19    39 1   
    43    20    41 1   
    44    40    42 1   
@<TRIPOS>SUBSTRUCTURE
     1 V3X         1 TEMP              0 ****  ****    0 ROOT
