@<TRIPOS>MOLECULE
V3X
   43    44     1     0     0
SMALL
No Charge or Current Charge


@<TRIPOS>ATOM
      1 CA          48.0180    85.2210   129.0340 c3         1 V3X       0.011300
      2 C           48.5430    86.6360   128.6710 c          1 V3X       0.600100
      3 O           48.9040    86.9310   127.5380 o          1 V3X      -0.627100
      4 CB          46.4630    85.1100   129.0210 c3         1 V3X      -0.038700
      5 CG1         45.8580    85.5000   127.6510 c3         1 V3X      -0.093600
      6 CG2         45.7770    85.8890   130.1700 c3         1 V3X      -0.093600
      7 CAA         43.2380    89.0900   129.7280 ca         1 V3X      -0.188000
      8 CAB         42.7220    88.9350   128.4200 ca         1 V3X      -0.068000
      9 CAC         43.5770    89.0480   127.3040 ca         1 V3X      -0.146000
     10 CAD         44.9330    89.3100   127.5340 ca         1 V3X      -0.031200
     11 CAE         45.4420    89.4530   128.7970 ca         1 V3X      -0.137800
     12 CAF         44.6080    89.3540   129.9270 ca         1 V3X       0.218000
     13 CAH         47.1690    89.7010   127.2650 cc         1 V3X      -0.159100
     14 CAI         46.8690    89.6910   128.6240 cd         1 V3X      -0.123400
     15 CAJ         47.8990    89.8900   129.7180 c3         1 V3X      -0.012200
     16 CAK         49.1000    88.9100   129.6380 c3         1 V3X       0.113700
     17 CAL         50.1850    89.2040   130.7100 c3         1 V3X       0.143600
     18 NAG         45.9460    89.4580   126.6080 na         1 V3X      -0.218700
     19 NAM         48.6550    87.5120   129.7270 ns         1 V3X      -0.486900
     20 S1          48.7960    84.5870   130.6160 sh         1 V3X      -0.442800
     21 H1          48.3910    84.5670   128.2360 h1         1 V3X       0.092700
     22 H2          46.2260    84.0500   129.1760 hc         1 V3X       0.060700
     23 H3          46.3210    84.9220   126.8420 hc         1 V3X       0.042200
     24 H4          44.7800    85.3000   127.6340 hc         1 V3X       0.042200
     25 H5          46.0070    86.5660   127.4420 hc         1 V3X       0.042200
     26 H6          46.1130    85.5310   131.1490 hc         1 V3X       0.042200
     27 H7          45.9930    86.9590   130.1030 hc         1 V3X       0.042200
     28 H8          44.6880    85.7610   130.1260 hc         1 V3X       0.042200
     29 H9          42.5770    89.0040   130.5870 ha         1 V3X       0.129000
     30 H10         41.6630    88.7310   128.2740 ha         1 V3X       0.114000
     31 H11         43.1910    88.9330   126.2930 ha         1 V3X       0.117000
     32 H12         48.1100    89.8390   126.7400 h4         1 V3X       0.231000
     33 H13         48.2820    90.9160   129.6610 hc         1 V3X       0.065700
     34 H14         47.4440    89.7980   130.7080 hc         1 V3X       0.065700
     35 H15         49.5810    89.0610   128.6620 h1         1 V3X       0.078700
     36 H16         51.0740    88.6010   130.4830 h1         1 V3X       0.028700
     37 H17         50.4790    90.2600   130.6460 h1         1 V3X       0.028700
     38 H18         45.8220    89.3980   125.6020 hn         1 V3X       0.353000
     39 H19         48.4070    87.1530   130.6410 hn         1 V3X       0.344500
     40 H20         50.4410    89.0940   132.6570 ho         1 V3X       0.446000
     41 H21         50.0870    84.7300   130.2220 hs         1 V3X       0.214800
     42 OAV         49.7080    88.8940   132.0320 oh         1 V3X      -0.662000
     43 F1          45.0850    89.4970   131.1830 f          1 V3X      -0.179000
@<TRIPOS>BOND
     1     1     2 1   
     2     1     4 1   
     3     1    20 1   
     4     1    21 1   
     5     2     3 2   
     6     2    19 1   
     7     4     5 1   
     8     4     6 1   
     9     4    22 1   
    10     5    23 1   
    11     5    24 1   
    12     5    25 1   
    13     6    26 1   
    14     6    27 1   
    15     6    28 1   
    16     7     8 ar  
    17     7    12 ar  
    18     7    29 1   
    19     8     9 ar  
    20     8    30 1   
    21     9    10 ar  
    22     9    31 1   
    23    10    11 ar  
    24    10    18 1   
    25    11    12 ar  
    26    11    14 1   
    27    12    43 1   
    28    13    14 2   
    29    13    18 1   
    30    13    32 1   
    31    14    15 1   
    32    15    16 1   
    33    15    33 1   
    34    15    34 1   
    35    16    17 1   
    36    16    19 1   
    37    16    35 1   
    38    17    36 1   
    39    17    37 1   
    40    17    42 1   
    41    18    38 1   
    42    19    39 1   
    43    20    41 1   
    44    40    42 1   
@<TRIPOS>SUBSTRUCTURE
     1 V3X         1 TEMP              0 ****  ****    0 ROOT
