@<TRIPOS>MOLECULE
V40
   39    40     1     0     0
SMALL
abcg2


@<TRIPOS>ATOM
      1 N1          25.0600    16.0960    36.8320 n3         1 V40      -0.767600
      2 C7          24.9570    15.9370    38.2730 c3         1 V40       0.183800
      3 C8          24.0160    16.9200    36.2160 c5         1 V40       0.179800
      4 C9          24.1570    16.6520    34.7040 c5         1 V40      -0.075400
      5 C1          27.3550    16.5820    38.8420 c6         1 V40      -0.055700
      6 C5          25.9430    15.1070    40.4110 c6         1 V40      -0.074400
      7 C6          26.2550    15.4890    38.9510 c6         1 V40      -0.054700
      8 C4          27.1890    15.1250    41.2920 c6         1 V40      -0.069400
      9 C3          27.7940    16.5420    41.3650 c6         1 V40      -0.074400
     10 C2          27.4140    17.3950    40.1420 c6         1 V40      -0.071400
     11 O           24.1160    13.9560    36.1760 oh         1 V40      -0.698000
     12 C11         25.1970    14.9110    36.0260 c5         1 V40       0.400500
     13 C10         25.1340    15.4570    34.6080 c5         1 V40      -0.068400
     14 H2          24.6760    16.9090    38.6880 h1         1 V40       0.030700
     15 H3          24.1420    15.2460    38.5440 h1         1 V40       0.030700
     16 H4          24.1690    17.9680    36.4830 h1         1 V40       0.036200
     17 H5          23.0150    16.6330    36.5680 h1         1 V40       0.036200
     18 H6          24.5470    17.5220    34.1770 hc         1 V40       0.047200
     19 H7          23.1910    16.4100    34.2640 hc         1 V40       0.047200
     20 H8          27.0670    17.2530    38.0280 hc         1 V40       0.082700
     21 H9          25.2080    15.8100    40.8210 hc         1 V40       0.037700
     22 H10         25.4700    14.1220    40.4320 hc         1 V40       0.037700
     23 H11         26.6070    14.5820    38.4510 hc         1 V40       0.037700
     24 H12         26.9470    14.7680    42.2960 hc         1 V40       0.037200
     25 H13         27.9210    14.4230    40.8830 hc         1 V40       0.037200
     26 H14         28.8810    16.4740    41.4540 hc         1 V40       0.036700
     27 H15         27.4440    17.0470    42.2690 hc         1 V40       0.036700
     28 H16         28.1150    18.2260    40.0290 hc         1 V40       0.039700
     29 H17         26.4310    17.8460    40.3070 hc         1 V40       0.039700
     30 H18         24.1960    13.5430    37.0450 ho         1 V40       0.434000
     31 H19         26.1320    14.3980    36.2530 h2         1 V40       0.054700
     32 H20         24.8130    14.6930    33.9020 hc         1 V40       0.060200
     33 H21         26.1300    15.7920    34.3180 hc         1 V40       0.060200
     34 H24         29.7330    15.2600    36.8620 hn         1 V40       0.387000
     35 H25         28.2320    14.6850    37.0080 hn         1 V40       0.387000
     36 C           28.7360    16.0370    38.4700 c3         1 V40       0.155800
     37 N           28.7820    15.5350    37.0860 n8         1 V40      -0.996200
     38 H22         29.0480    15.2750    39.1950 h1         1 V40       0.027200
     39 H23         29.4590    16.8550    38.5400 h1         1 V40       0.027200
@<TRIPOS>BOND
     1     1     2 1   
     2     1     3 1   
     3     1    12 1   
     4     2     7 1   
     5     2    14 1   
     6     2    15 1   
     7     3     4 1   
     8     3    16 1   
     9     3    17 1   
    10     4    13 1   
    11     4    18 1   
    12     4    19 1   
    13     5     7 1   
    14     5    10 1   
    15     5    20 1   
    16     5    36 1   
    17     6     7 1   
    18     6     8 1   
    19     6    21 1   
    20     6    22 1   
    21     7    23 1   
    22     8     9 1   
    23     8    24 1   
    24     8    25 1   
    25     9    10 1   
    26     9    26 1   
    27     9    27 1   
    28    10    28 1   
    29    10    29 1   
    30    11    12 1   
    31    11    30 1   
    32    12    13 1   
    33    12    31 1   
    34    13    32 1   
    35    13    33 1   
    36    34    37 1   
    37    35    37 1   
    38    36    37 1   
    39    36    38 1   
    40    36    39 1   
@<TRIPOS>SUBSTRUCTURE
     1 V40         1 TEMP              0 ****  ****    0 ROOT
