@<TRIPOS>MOLECULE
V40
   39    40     1     0     0
SMALL
No Charge or Current Charge


@<TRIPOS>ATOM
      1 N1          24.9170    16.0990    36.8490 n3         1 V40      -0.767600
      2 C7          24.8940    15.8400    38.3110 c3         1 V40       0.183800
      3 C8          23.6880    16.6550    36.2450 c5         1 V40       0.179800
      4 C9          24.1790    16.8800    34.7960 c5         1 V40      -0.075400
      5 C1          27.3850    16.5000    38.7690 c6         1 V40      -0.055700
      6 C5          26.0000    15.0550    40.4630 c6         1 V40      -0.074400
      7 C6          26.2550    15.4130    38.9580 c6         1 V40      -0.054700
      8 C4          27.2510    15.2240    41.3520 c6         1 V40      -0.069400
      9 C3          27.7850    16.6860    41.3170 c6         1 V40      -0.074400
     10 C2          27.4270    17.4430    40.0030 c6         1 V40      -0.071400
     11 O           24.5410    13.9110    36.1970 oh         1 V40      -0.698000
     12 C11         25.3520    15.0300    35.9420 c5         1 V40       0.400500
     13 C10         25.0850    15.6350    34.5300 c5         1 V40      -0.068400
     14 H2          24.5600    16.7530    38.8230 h1         1 V40       0.030700
     15 H3          24.1500    15.0650    38.5400 h1         1 V40       0.030700
     16 H4          23.3740    17.5950    36.7210 h1         1 V40       0.036200
     17 H5          22.8470    15.9490    36.2880 h1         1 V40       0.036200
     18 H6          24.7600    17.8070    34.7260 hc         1 V40       0.047200
     19 H7          23.3500    16.9610    34.0850 hc         1 V40       0.047200
     20 H8          27.1460    17.1160    37.8910 hc         1 V40       0.082700
     21 H9          25.2030    15.6920    40.8720 hc         1 V40       0.037700
     22 H10         25.6250    14.0250    40.5380 hc         1 V40       0.037700
     23 H11         26.5580    14.4910    38.4470 hc         1 V40       0.037700
     24 H12         27.0150    14.9440    42.3880 hc         1 V40       0.037200
     25 H13         28.0300    14.5230    41.0260 hc         1 V40       0.037200
     26 H14         28.8750    16.6720    41.4550 hc         1 V40       0.036700
     27 H15         27.3820    17.2480    42.1700 hc         1 V40       0.036700
     28 H16         28.1440    18.2590    39.8370 hc         1 V40       0.039700
     29 H17         26.4470    17.9260    40.1180 hc         1 V40       0.039700
     30 H18         23.8920    14.2730    36.8290 ho         1 V40       0.434000
     31 H19         26.4110    14.7730    36.0750 h2         1 V40       0.054700
     32 H20         24.6000    14.9110    33.8660 hc         1 V40       0.060200
     33 H21         26.0230    15.9300    34.0460 hc         1 V40       0.060200
     34 H24         29.8570    14.7810    37.1140 hn         1 V40       0.387000
     35 H25         28.3100    14.3410    37.2540 hn         1 V40       0.387000
     36 C           28.8060    15.9140    38.4680 c3         1 V40       0.155800
     37 N           28.9100    15.1700    37.1970 n8         1 V40      -0.996200
     38 H22         29.1200    15.2450    39.2780 h1         1 V40       0.027200
     39 H23         29.5240    16.7450    38.4250 h1         1 V40       0.027200
@<TRIPOS>BOND
     1     1     2 1   
     2     1     3 1   
     3     1    12 1   
     4     2     7 1   
     5     2    14 1   
     6     2    15 1   
     7     3     4 1   
     8     3    16 1   
     9     3    17 1   
    10     4    13 1   
    11     4    18 1   
    12     4    19 1   
    13     5     7 1   
    14     5    10 1   
    15     5    20 1   
    16     5    36 1   
    17     6     7 1   
    18     6     8 1   
    19     6    21 1   
    20     6    22 1   
    21     7    23 1   
    22     8     9 1   
    23     8    24 1   
    24     8    25 1   
    25     9    10 1   
    26     9    26 1   
    27     9    27 1   
    28    10    28 1   
    29    10    29 1   
    30    11    12 1   
    31    11    30 1   
    32    12    13 1   
    33    12    31 1   
    34    13    32 1   
    35    13    33 1   
    36    34    37 1   
    37    35    37 1   
    38    36    37 1   
    39    36    38 1   
    40    36    39 1   
@<TRIPOS>SUBSTRUCTURE
     1 V40         1 TEMP              0 ****  ****    0 ROOT
