@<TRIPOS>MOLECULE
V41
   26    26     1     0     0
SMALL
abcg2


@<TRIPOS>ATOM
      1 N6         -27.4040    -0.9440   -20.8380 ne         1 V41      -0.184400
      2 C7         -26.2030    -1.5140   -21.3170 ca         1 V41       0.069400
      3 C8         -24.9640    -0.8730   -21.3230 ca         1 V41      -0.066500
      4 C9         -23.8540    -1.5380   -21.8110 ca         1 V41      -0.121000
      5 C10        -23.9680    -2.8390   -22.2940 ca         1 V41      -0.085000
      6 C11        -25.2000    -3.4770   -22.2880 ca         1 V41      -0.121000
      7 C12        -26.3160    -2.8140   -21.7970 ca         1 V41      -0.066500
      8 N13        -27.3230     0.2160   -20.4380 n2         1 V41      -0.206200
      9 C14        -28.5870     0.7370   -19.9590 c3         1 V41      -0.103800
     10 C15        -28.8890     2.0520   -20.6670 c2         1 V41       0.635200
     11 C16        -28.4600     0.9640   -18.4430 c          1 V41       0.624100
     12 N17        -29.5300     1.5380   -17.8840 nt         1 V41      -0.603000
     13 N18        -30.0300     2.3590   -21.1430 n2         1 V41      -0.854100
     14 N19        -27.8500     2.9220   -20.6730 nv         1 V41      -1.031200
     15 O20        -27.4670     0.6190   -17.8320 o          1 V41      -0.579100
     16 H1         -24.8720     0.1370   -20.9450 ha         1 V41       0.130000
     17 H2         -22.8910    -1.0430   -21.8140 ha         1 V41       0.118500
     18 H3         -23.0940    -3.3530   -22.6740 ha         1 V41       0.116000
     19 H4         -25.2930    -4.4870   -22.6620 ha         1 V41       0.118500
     20 H5         -27.2850    -3.2970   -21.7830 ha         1 V41       0.130000
     21 H6         -29.4030     0.0280   -20.1420 h1         1 V41       0.084700
     22 H7         -29.5550     1.7030   -16.8910 hn         1 V41       0.321000
     23 H8         -30.3430     1.8000   -18.4170 hn         1 V41       0.321000
     24 H9         -30.6910     1.6000   -21.0200 hn         1 V41       0.384400
     25 H10        -26.9160     2.5590   -20.5780 hn         1 V41       0.486000
     26 H11        -27.9380     3.7430   -21.2490 hn         1 V41       0.486000
@<TRIPOS>BOND
     1     1     2 1   
     2     1     8 2   
     3     2     3 ar  
     4     2     7 ar  
     5     3     4 ar  
     6     3    16 1   
     7     4     5 ar  
     8     4    17 1   
     9     5     6 ar  
    10     5    18 1   
    11     6     7 ar  
    12     6    19 1   
    13     7    20 1   
    14     8     9 1   
    15     9    10 1   
    16     9    11 1   
    17     9    21 1   
    18    10    13 2   
    19    10    14 1   
    20    11    12 1   
    21    11    15 2   
    22    12    22 1   
    23    12    23 1   
    24    13    24 1   
    25    14    25 1   
    26    14    26 1   
@<TRIPOS>SUBSTRUCTURE
     1 V41         1 TEMP              0 ****  ****    0 ROOT
