@<TRIPOS>MOLECULE
V41
   26    26     1     0     0
SMALL
No Charge or Current Charge


@<TRIPOS>ATOM
      1 N6         -27.3770    -0.8190   -20.4510 ne         1 V41      -0.184400
      2 C7         -26.2740    -1.4970   -21.0030 ca         1 V41       0.069400
      3 C8         -25.0810    -1.6280   -20.2660 ca         1 V41      -0.066500
      4 C9         -23.9810    -2.3120   -20.8140 ca         1 V41      -0.121000
      5 C10        -24.0700    -2.8710   -22.1010 ca         1 V41      -0.085000
      6 C11        -25.2610    -2.7460   -22.8390 ca         1 V41      -0.121000
      7 C12        -26.3610    -2.0620   -22.2900 ca         1 V41      -0.066500
      8 N13        -27.4140     0.4260   -20.6830 n2         1 V41      -0.206200
      9 C14        -28.5940     1.0810   -20.0620 c3         1 V41      -0.103800
     10 C15        -29.1000     2.2320   -20.9160 c2         1 V41       0.635200
     11 C16        -28.2770     1.5680   -18.6450 c          1 V41       0.624100
     12 N17        -28.6110     0.7250   -17.6410 nt         1 V41      -0.603000
     13 N18        -30.3220     2.5300   -21.0490 n2         1 V41      -0.854100
     14 N19        -28.2050     2.9020   -21.6760 nv         1 V41      -1.031200
     15 O20        -27.7460     2.6370   -18.3860 o          1 V41      -0.579100
     16 H1         -25.0090    -1.1970   -19.2700 ha         1 V41       0.130000
     17 H2         -23.0610    -2.4080   -20.2420 ha         1 V41       0.118500
     18 H3         -23.2200    -3.4000   -22.5250 ha         1 V41       0.116000
     19 H4         -25.3320    -3.1790   -23.8340 ha         1 V41       0.118500
     20 H5         -27.2800    -1.9680   -22.8620 ha         1 V41       0.130000
     21 H6         -29.4190     0.3630   -19.9700 h1         1 V41       0.084700
     22 H7         -28.4140     0.9910   -16.6880 hn         1 V41       0.321000
     23 H8         -29.0210    -0.1730   -17.8490 hn         1 V41       0.321000
     24 H9         -30.8830     1.9060   -20.4530 hn         1 V41       0.384400
     25 H10        -27.3790     2.3520   -21.8870 hn         1 V41       0.486000
     26 H11        -28.6340     3.3480   -22.4780 hn         1 V41       0.486000
@<TRIPOS>BOND
     1     1     2 1   
     2     1     8 2   
     3     2     3 ar  
     4     2     7 ar  
     5     3     4 ar  
     6     3    16 1   
     7     4     5 ar  
     8     4    17 1   
     9     5     6 ar  
    10     5    18 1   
    11     6     7 ar  
    12     6    19 1   
    13     7    20 1   
    14     8     9 1   
    15     9    10 1   
    16     9    11 1   
    17     9    21 1   
    18    10    13 2   
    19    10    14 1   
    20    11    12 1   
    21    11    15 2   
    22    12    22 1   
    23    12    23 1   
    24    13    24 1   
    25    14    25 1   
    26    14    26 1   
@<TRIPOS>SUBSTRUCTURE
     1 V41         1 TEMP              0 ****  ****    0 ROOT
