@<TRIPOS>MOLECULE
V42
   30    31     1     0     0
SMALL
No Charge or Current Charge


@<TRIPOS>ATOM
      1 C01        -14.6900   -17.8550    -1.8300 c3         1 V42       0.056900
      2 C03        -17.1350   -18.5790    -1.7530 cc         1 V42      -0.023000
      3 C04        -18.0400   -18.5810    -0.7240 cd         1 V42      -0.508500
      4 C08        -18.8680   -21.1340     0.7700 ca         1 V42       0.175100
      5 C09        -17.5230   -21.5700     0.7240 ca         1 V42      -0.164200
      6 C13        -16.8500   -21.8500     1.9360 ca         1 V42      -0.057000
      7 C14        -17.5130   -21.7210     3.1680 ca         1 V42      -0.065000
      8 C15        -18.8620   -21.3120     3.2130 ca         1 V42      -0.150600
      9 C16        -19.5880   -21.1790     4.5270 c          1 V42       0.581500
     10 C17        -19.5310   -21.0220     2.0060 ca         1 V42      -0.087000
     11 C19        -17.3950   -18.0560     0.4040 cd         1 V42       0.343900
     12 N02        -15.9860   -18.0550    -1.1710 na         1 V42       0.169800
     13 N10        -16.7930   -21.7240    -0.5680 no         1 V42       0.693200
     14 N20        -16.1400   -17.7280     0.1620 nc         1 V42      -0.506800
     15 O06        -20.4570   -18.5190     0.2970 o          1 V42      -0.522000
     16 O07        -19.5490   -20.8080    -0.3740 os         1 V42      -0.419800
     17 O11        -15.5730   -21.5170    -0.5660 o          1 V42      -0.382500
     18 O12        -17.4060   -22.1780    -1.5430 o          1 V42      -0.382500
     19 O18        -20.1700   -19.1190    -2.1810 o          1 V42      -0.522000
     20 H1         -14.2520   -16.9050    -1.5020 h1         1 V42       0.070367
     21 H2         -14.0170   -18.6780    -1.5660 h1         1 V42       0.070367
     22 H3         -14.8280   -17.8320    -2.9180 h1         1 V42       0.070367
     23 H4         -17.1940   -18.8960    -2.7890 h4         1 V42       0.185000
     24 H5         -15.8120   -22.1780     1.9280 ha         1 V42       0.153000
     25 H6         -16.9750   -21.9480     4.0870 ha         1 V42       0.151000
     26 H7         -20.6480   -20.8490     4.4650 h4         1 V42       0.008200
     27 H10        -20.5710   -20.7020     2.0240 ha         1 V42       0.154000
     28 H11        -17.7980   -17.9120     1.3990 h4         1 V42       0.059100
     29 O1         -19.0660   -21.4130     5.6130 o          1 V42      -0.493100
     30 S05        -19.7060   -19.1640    -0.7880 sy         1 V42       1.343200
@<TRIPOS>BOND
     1     1    12 1   
     2     1    20 1   
     3     1    21 1   
     4     1    22 1   
     5     2     3 2   
     6     2    12 1   
     7     2    23 1   
     8     3    11 1   
     9     3    30 1   
    10     4     5 ar  
    11     4    10 ar  
    12     4    16 1   
    13     5     6 ar  
    14     5    13 1   
    15     6     7 ar  
    16     6    24 1   
    17     7     8 ar  
    18     7    25 1   
    19     8     9 1   
    20     8    10 ar  
    21     9    26 1   
    22     9    29 2   
    23    10    27 1   
    24    11    14 2   
    25    11    28 1   
    26    12    14 1   
    27    13    17 1   
    28    13    18 1   
    29    15    30 2   
    30    16    30 1   
    31    19    30 2   
@<TRIPOS>SUBSTRUCTURE
     1 V42         1 TEMP              0 ****  ****    0 ROOT
