@<TRIPOS>MOLECULE
V42
   30    31     1     0     0
SMALL
abcg2


@<TRIPOS>ATOM
      1 C01        -14.7460   -17.9220    -2.1870 c3         1 V42       0.056900
      2 C03        -17.1110   -18.5860    -1.8170 cc         1 V42      -0.023000
      3 C04        -17.9490   -18.5440    -0.7180 cd         1 V42      -0.508500
      4 C08        -18.8350   -21.0500     0.8810 ca         1 V42       0.175100
      5 C09        -17.4920   -21.4180     0.9310 ca         1 V42      -0.164200
      6 C13        -16.8880   -21.7910     2.1220 ca         1 V42      -0.057000
      7 C14        -17.6390   -21.8210     3.2800 ca         1 V42      -0.065000
      8 C15        -18.9820   -21.4580     3.2430 ca         1 V42      -0.150600
      9 C16        -19.8130   -21.4870     4.4690 c          1 V42       0.581500
     10 C17        -19.5750   -21.0620     2.0510 ca         1 V42      -0.087000
     11 C19        -17.1830   -17.9770     0.3170 cd         1 V42       0.343900
     12 N02        -15.9570   -18.0680    -1.4060 na         1 V42       0.169800
     13 N10        -16.6860   -21.4570    -0.2800 no         1 V42       0.693200
     14 N20        -15.9790   -17.6970    -0.1210 nc         1 V42      -0.506800
     15 O06        -20.2390   -18.4550     0.4600 o          1 V42      -0.522000
     16 O07        -19.4140   -20.6940    -0.3030 os         1 V42      -0.419800
     17 O11        -15.5740   -20.9920    -0.2130 o          1 V42      -0.382500
     18 O12        -17.1700   -21.9680    -1.2580 o          1 V42      -0.382500
     19 O18        -20.1580   -19.1260    -1.9700 o          1 V42      -0.522000
     20 H1         -14.0520   -17.3060    -1.6260 h1         1 V42       0.070367
     21 H2         -14.2980   -18.8950    -2.3730 h1         1 V42       0.070367
     22 H3         -14.9720   -17.4380    -3.1340 h1         1 V42       0.070367
     23 H4         -17.2720   -18.9310    -2.8250 h4         1 V42       0.185000
     24 H5         -15.8450   -22.0760     2.1370 ha         1 V42       0.153000
     25 H6         -17.1790   -22.1310     4.2080 ha         1 V42       0.151000
     26 H7         -20.8630   -21.1820     4.3220 h4         1 V42       0.008200
     27 H10        -20.6200   -20.7810     2.0270 ha         1 V42       0.154000
     28 H11        -17.4740   -17.7680     1.3350 h4         1 V42       0.059100
     29 O1         -19.3970   -21.8180     5.5500 o          1 V42      -0.493100
     30 S05        -19.5750   -19.0860    -0.6550 sy         1 V42       1.343200
@<TRIPOS>BOND
     1     1    12 1   
     2     1    20 1   
     3     1    21 1   
     4     1    22 1   
     5     2     3 2   
     6     2    12 1   
     7     2    23 1   
     8     3    11 1   
     9     3    30 1   
    10     4     5 ar  
    11     4    10 ar  
    12     4    16 1   
    13     5     6 ar  
    14     5    13 1   
    15     6     7 ar  
    16     6    24 1   
    17     7     8 ar  
    18     7    25 1   
    19     8     9 1   
    20     8    10 ar  
    21     9    26 1   
    22     9    29 2   
    23    10    27 1   
    24    11    14 2   
    25    11    28 1   
    26    12    14 1   
    27    13    17 1   
    28    13    18 1   
    29    15    30 2   
    30    16    30 1   
    31    19    30 2   
@<TRIPOS>SUBSTRUCTURE
     1 V42         1 TEMP              0 ****  ****    0 ROOT
