@<TRIPOS>MOLECULE
V45
   62    64     1     0     0
SMALL
bcc


@<TRIPOS>ATOM
      1 C06          2.1500     1.4490    -0.5950 c5         1 V45       0.139100
      2 C08          1.3410    -0.3070     0.6060 c          1 V45       0.839600
      3 C10         -0.8070    -0.7410    -0.5060 c3         1 V45       0.055700
      4 C11         -0.7410    -2.2750    -0.5300 c3         1 V45      -0.071400
      5 C12          0.2600    -2.8490    -1.5330 c3         1 V45      -0.055700
      6 C13          0.2280    -4.3730    -1.4640 c3         1 V45      -0.089100
      7 C14         -0.0100    -2.3720    -2.9550 c3         1 V45      -0.089100
      8 C15         -1.7260    -0.2180     0.6060 c          1 V45       0.644100
      9 C17         -3.9910    -0.3190     1.5130 c3         1 V45      -0.019300
     10 C18         -5.3940    -0.2230     0.9100 c3         1 V45      -0.063400
     11 C19         -5.4850     0.8610    -0.1520 c5         1 V45      -0.153700
     12 C20         -5.1590     2.2760     0.3240 c5         1 V45      -0.092400
     13 C21         -6.0170     3.1710    -0.5730 c5         1 V45       0.099000
     14 C23         -6.8870     0.9950    -0.7260 c          1 V45       0.702500
     15 C25         -3.9780    -1.3210     2.6450 c          1 V45       0.554900
     16 C28          0.7050     1.1940    -1.0190 c5         1 V45       0.057000
     17 N09          0.4800    -0.1040    -0.4200 n          1 V45      -0.483800
     18 N16         -3.0050    -0.6210     0.5150 ns         1 V45      -0.560900
     19 N22         -7.1270     2.3030    -0.9050 ns         1 V45      -0.578900
     20 O07          2.3000     0.6350     0.5740 os         1 V45      -0.382900
     21 O24         -7.6480     0.0760    -0.9860 o          1 V45      -0.627500
     22 O27         -1.3210     0.5330     1.4750 o          1 V45      -0.586100
     23 O29          1.3380    -1.1830     1.4350 o          1 V45      -0.587500
     24 H1           2.3180     2.4850    -0.3010 h1         1 V45       0.086700
     25 H3          -1.2390    -0.4130    -1.4560 h1         1 V45       0.062700
     26 H4          -0.5210    -2.6570     0.4670 hc         1 V45       0.062700
     27 H5          -1.7350    -2.6510    -0.7920 hc         1 V45       0.062700
     28 H6           1.2650    -2.5240    -1.2460 hc         1 V45       0.060700
     29 H7          -0.7530    -4.7600    -1.7520 hc         1 V45       0.033200
     30 H8           0.9670    -4.8100    -2.1370 hc         1 V45       0.033200
     31 H9           0.4430    -4.7320    -0.4560 hc         1 V45       0.033200
     32 H10          0.1120    -1.2930    -3.0640 hc         1 V45       0.033200
     33 H11          0.6790    -2.8430    -3.6590 hc         1 V45       0.033200
     34 H12         -1.0260    -2.6260    -3.2680 hc         1 V45       0.033200
     35 H13         -3.7480     0.6470     1.9700 h1         1 V45       0.096700
     36 H14         -5.6830    -1.1880     0.4860 hc         1 V45       0.065700
     37 H15         -6.1010    -0.0070     1.7160 hc         1 V45       0.065700
     38 H16         -4.8330     0.5980    -0.9950 hc         1 V45       0.075700
     39 H17         -5.4650     2.3970     1.3670 hc         1 V45       0.061700
     40 H18         -4.1010     2.5220     0.2550 hc         1 V45       0.061700
     41 H19         -6.3610     4.0690    -0.0610 h1         1 V45       0.047200
     42 H20         -5.4760     3.4820    -1.4710 h1         1 V45       0.047200
     43 H21         -4.7450    -1.1330     3.4170 h4         1 V45      -0.006800
     44 H23          0.0200     1.9480    -0.6230 h1         1 V45       0.059700
     45 H24          0.5940     1.1600    -2.1030 h1         1 V45       0.059700
     46 H25         -3.2530    -1.2990    -0.1900 hn         1 V45       0.319500
     47 H26         -7.9540     2.6360    -1.3760 hn         1 V45       0.330500
     48 C1           3.1580     1.0320    -1.6600 c3         1 V45      -0.049100
     49 C2           5.2600     2.3240    -1.1750 ca         1 V45      -0.126000
     50 C3           6.5540     2.4050    -0.6850 ca         1 V45      -0.120000
     51 C4           7.1910     1.2800    -0.1810 ca         1 V45      -0.118000
     52 C5           6.5030     0.0770    -0.1800 ca         1 V45       0.031400
     53 C6           5.2080    -0.0190    -0.6630 ca         1 V45      -0.098000
     54 C7           4.5740     1.1120    -1.1680 ca         1 V45      -0.070300
     55 H2           2.9270     0.0210    -2.0080 hc         1 V45       0.059200
     56 H22          3.0200     1.6990    -2.5140 hc         1 V45       0.059200
     57 H27          4.7780     3.2100    -1.5700 ha         1 V45       0.128000
     58 H28          7.0790     3.3520    -0.6940 ha         1 V45       0.135000
     59 H29          8.2010     1.3400     0.2000 ha         1 V45       0.147000
     60 H30          4.6940    -0.9720    -0.6560 ha         1 V45       0.152000
     61 O26         -3.2080    -2.2400     2.7300 o          1 V45      -0.487100
     62 CL1          7.2790    -1.3440     0.4460 cl         1 V45      -0.110400
@<TRIPOS>BOND
     1     1    16 1   
     2     1    20 1   
     3     1    24 1   
     4     1    48 1   
     5     2    17 1   
     6     2    20 1   
     7     2    23 2   
     8     3     4 1   
     9     3     8 1   
    10     3    17 1   
    11     3    25 1   
    12     4     5 1   
    13     4    26 1   
    14     4    27 1   
    15     5     6 1   
    16     5     7 1   
    17     5    28 1   
    18     6    29 1   
    19     6    30 1   
    20     6    31 1   
    21     7    32 1   
    22     7    33 1   
    23     7    34 1   
    24     8    18 1   
    25     8    22 2   
    26     9    10 1   
    27     9    15 1   
    28     9    18 1   
    29     9    35 1   
    30    10    11 1   
    31    10    36 1   
    32    10    37 1   
    33    11    12 1   
    34    11    14 1   
    35    11    38 1   
    36    12    13 1   
    37    12    39 1   
    38    12    40 1   
    39    13    19 1   
    40    13    41 1   
    41    13    42 1   
    42    14    19 1   
    43    14    21 2   
    44    15    43 1   
    45    15    61 2   
    46    16    17 1   
    47    16    44 1   
    48    16    45 1   
    49    18    46 1   
    50    19    47 1   
    51    48    54 1   
    52    48    55 1   
    53    48    56 1   
    54    49    50 ar  
    55    49    54 ar  
    56    49    57 1   
    57    50    51 ar  
    58    50    58 1   
    59    51    52 ar  
    60    51    59 1   
    61    52    53 ar  
    62    52    62 1   
    63    53    54 ar  
    64    53    60 1   
@<TRIPOS>SUBSTRUCTURE
     1 V45         1 TEMP              0 ****  ****    0 ROOT
