@<TRIPOS>MOLECULE
V45
   62    64     1     0     0
SMALL
No Charge or Current Charge


@<TRIPOS>ATOM
      1 C06          2.2160     1.3760    -1.1160 c5         1 V45       0.162300
      2 C08          1.0560     0.2900     0.5490 c          1 V45       0.697100
      3 C10         -0.9710    -0.5970    -0.6600 c3         1 V45       0.055700
      4 C11         -0.7490    -2.1410    -0.7130 c3         1 V45      -0.071400
      5 C12          0.2200    -2.6490    -1.8200 c3         1 V45      -0.055700
      6 C13          0.5240    -4.1540    -1.6380 c3         1 V45      -0.089100
      7 C14         -0.3100    -2.3720    -3.2480 c3         1 V45      -0.089100
      8 C15         -2.0230    -0.1180     0.3980 c          1 V45       0.577100
      9 C17         -4.1650    -0.7520     1.6340 c3         1 V45      -0.019300
     10 C18         -5.4670    -0.3650     0.8840 c3         1 V45      -0.063400
     11 C19         -5.4140     0.9830     0.1120 c5         1 V45      -0.153700
     12 C20         -5.2660     2.2500     1.0010 c5         1 V45      -0.092400
     13 C21         -5.7620     3.3600     0.0360 c5         1 V45       0.099000
     14 C23         -6.6870     1.2890    -0.6910 c          1 V45       0.560000
     15 C25         -4.3950    -1.9780     2.5550 c          1 V45       0.554900
     16 C28          0.8350     0.9780    -1.7170 c5         1 V45       0.057000
     17 N09          0.3170     0.1540    -0.6230 n          1 V45      -0.416800
     18 N16         -3.0450    -1.0050     0.6920 ns         1 V45      -0.493900
     19 N22         -6.8310     2.6490    -0.6620 ns         1 V45      -0.511900
     20 O07          2.1010     1.1280     0.3090 os         1 V45      -0.406100
     21 O24         -7.5580     0.5330    -1.0900 o          1 V45      -0.552000
     22 O27         -1.9670     0.9810     0.9340 o          1 V45      -0.586100
     23 O29          0.8210    -0.2460     1.6210 o          1 V45      -0.512000
     24 H1           2.4370     2.4390    -1.2840 h1         1 V45       0.086700
     25 H3          -1.4490    -0.3350    -1.6110 h1         1 V45       0.062700
     26 H4          -0.3700    -2.4640     0.2650 hc         1 V45       0.062700
     27 H5          -1.7100    -2.6500    -0.8550 hc         1 V45       0.062700
     28 H6           1.1750    -2.1220    -1.7110 hc         1 V45       0.060700
     29 H7          -0.3900    -4.7530    -1.7350 hc         1 V45       0.033200
     30 H8           1.2420    -4.4980    -2.3910 hc         1 V45       0.033200
     31 H9           0.9570    -4.3460    -0.6490 hc         1 V45       0.033200
     32 H10         -0.4500    -1.3000    -3.4230 hc         1 V45       0.033200
     33 H11          0.3980    -2.7400    -3.9990 hc         1 V45       0.033200
     34 H12         -1.2720    -2.8740    -3.4110 hc         1 V45       0.033200
     35 H13         -3.8930     0.0710     2.3080 h1         1 V45       0.096700
     36 H14         -5.7170    -1.1760     0.1880 hc         1 V45       0.065700
     37 H15         -6.2920    -0.3260     1.6070 hc         1 V45       0.065700
     38 H16         -4.5860     0.9670    -0.6060 hc         1 V45       0.075700
     39 H17         -5.9090     2.1930     1.8870 hc         1 V45       0.061700
     40 H18         -4.2420     2.4230     1.3480 hc         1 V45       0.061700
     41 H19         -6.1200     4.2470     0.5770 h1         1 V45       0.047200
     42 H20         -4.9710     3.6730    -0.6600 h1         1 V45       0.047200
     43 H21         -5.0900    -1.8050     3.4060 h4         1 V45      -0.006800
     44 H23          0.1980     1.8560    -1.8870 h1         1 V45       0.059700
     45 H24          0.9290     0.4190    -2.6570 h1         1 V45       0.059700
     46 H25         -3.0130    -1.9050     0.2270 hn         1 V45       0.319500
     47 H26         -7.6640     3.0640    -1.0640 hn         1 V45       0.330500
     48 C1           3.3880     0.5300    -1.6730 c3         1 V45      -0.049100
     49 C2           5.5030     1.9410    -1.5930 ca         1 V45      -0.108000
     50 C3           6.7470     2.2720    -1.0270 ca         1 V45      -0.102000
     51 C4           7.2320     1.5470     0.0750 ca         1 V45      -0.100000
     52 C5           6.4720     0.4940     0.6090 ca         1 V45       0.123000
     53 C6           5.2300     0.1620     0.0440 ca         1 V45      -0.080000
     54 C7           4.7380     0.8840    -1.0610 ca         1 V45      -0.070300
     55 H2           3.1780    -0.5350    -1.5200 hc         1 V45       0.059200
     56 H22          3.4380     0.6620    -2.7610 hc         1 V45       0.059200
     57 H27          5.1340     2.5080    -2.4450 ha         1 V45       0.110000
     58 H28          7.3330     3.0890    -1.4420 ha         1 V45       0.117000
     59 H29          8.1940     1.8010     0.5150 ha         1 V45       0.129000
     60 H30          4.6480    -0.6520     0.4690 ha         1 V45       0.134000
     61 O26         -3.8640    -3.0730     2.3890 o          1 V45      -0.487100
     62 Cl1          7.0770    -0.4110     1.9910 cl         1 V45      -0.202000
@<TRIPOS>BOND
     1     1    16 1   
     2     1    20 1   
     3     1    24 1   
     4     1    48 1   
     5     2    17 1   
     6     2    20 1   
     7     2    23 2   
     8     3     4 1   
     9     3     8 1   
    10     3    17 1   
    11     3    25 1   
    12     4     5 1   
    13     4    26 1   
    14     4    27 1   
    15     5     6 1   
    16     5     7 1   
    17     5    28 1   
    18     6    29 1   
    19     6    30 1   
    20     6    31 1   
    21     7    32 1   
    22     7    33 1   
    23     7    34 1   
    24     8    18 1   
    25     8    22 2   
    26     9    10 1   
    27     9    15 1   
    28     9    18 1   
    29     9    35 1   
    30    10    11 1   
    31    10    36 1   
    32    10    37 1   
    33    11    12 1   
    34    11    14 1   
    35    11    38 1   
    36    12    13 1   
    37    12    39 1   
    38    12    40 1   
    39    13    19 1   
    40    13    41 1   
    41    13    42 1   
    42    14    19 1   
    43    14    21 2   
    44    15    43 1   
    45    15    61 2   
    46    16    17 1   
    47    16    44 1   
    48    16    45 1   
    49    18    46 1   
    50    19    47 1   
    51    48    54 1   
    52    48    55 1   
    53    48    56 1   
    54    49    50 ar  
    55    49    54 ar  
    56    49    57 1   
    57    50    51 ar  
    58    50    58 1   
    59    51    52 ar  
    60    51    59 1   
    61    52    53 ar  
    62    52    62 1   
    63    53    54 ar  
    64    53    60 1   
@<TRIPOS>SUBSTRUCTURE
     1 V45         1 TEMP              0 ****  ****    0 ROOT
