@<TRIPOS>MOLECULE
V47
   48    51     1     0     0
SMALL
abcg2


@<TRIPOS>ATOM
      1 O4           8.9950   -23.4160     7.1850 oh         1 V47      -0.712000
      2 C4          13.8830   -24.3650     7.2970 cc         1 V47       0.421700
      3 C5          12.4110   -22.2830     7.2440 c5         1 V47       0.318300
      4 C6          10.8360   -23.0380     8.7880 c5         1 V47       0.126300
      5 C3          14.9370   -24.1530     5.4790 ca         1 V47      -0.097600
      6 C2          14.0910   -23.0580     5.5590 ca         1 V47       0.118500
      7 C1          14.7870   -22.2530     3.6400 ca         1 V47       0.174900
      8 N1          15.6440   -23.2480     3.4260 nb         1 V47      -0.310000
      9 C7          10.8250   -24.1560     9.8100 c3         1 V47      -0.062400
     10 N2          13.9750   -22.0750     4.6680 nb         1 V47      -0.212000
     11 C8          11.3910   -23.7880    11.1750 c3         1 V47      -0.178400
     12 C9          10.5450   -22.8290    11.9770 c          1 V47       0.591700
     13 C10         11.1110   -22.2810    13.2420 ca         1 V47      -0.214600
     14 C11         12.3330   -22.7150    13.7550 ca         1 V47      -0.103000
     15 C12         12.8240   -22.1690    14.9310 ca         1 V47      -0.160000
     16 C13         12.1080   -21.1830    15.5940 ca         1 V47      -0.056000
     17 C14         10.8800   -20.7390    15.1050 ca         1 V47      -0.151600
     18 C15         10.0880   -19.6540    15.8340 c          1 V47       0.715600
     19 C16         10.3940   -21.3030    13.9330 ca         1 V47      -0.025000
     20 O           12.1740   -22.5630     8.5880 os         1 V47      -0.441000
     21 C17         10.3760   -23.4630     7.3900 c5         1 V47       0.094300
     22 C18         11.0780   -22.4340     6.5090 c5         1 V47       0.142300
     23 O5          10.4450   -21.1840     6.5520 oh         1 V47      -0.703000
     24 N4          13.4150   -23.2100     6.7340 na         1 V47      -0.302300
     25 N3          14.7930   -24.9580     6.5780 nd         1 V47      -0.569100
     26 C           15.7490   -24.2270     4.3320 ca         1 V47       0.447900
     27 N           16.6080   -25.2240     4.1170 nv         1 V47      -1.070900
     28 H1           8.5770   -24.1400     7.6610 ho         1 V47       0.522000
     29 H3          12.8150   -21.2740     7.1210 h2         1 V47       0.123700
     30 H4          10.2130   -22.2040     9.1290 h1         1 V47       0.105700
     31 H7           9.7950   -24.5070     9.9140 hc         1 V47       0.041200
     32 H8          11.3970   -25.0030     9.4200 hc         1 V47       0.041200
     33 H9          11.5020   -24.7000    11.7730 hc         1 V47       0.067200
     34 H10         12.4040   -23.3920    11.0760 hc         1 V47       0.067200
     35 H11         12.9100   -23.4790    13.2510 ha         1 V47       0.082000
     36 H12         13.7710   -22.5110    15.3280 ha         1 V47       0.090000
     37 H13         12.5030   -20.7510    16.5040 ha         1 V47       0.129000
     38 H14          9.4420   -20.9670    13.5460 ha         1 V47       0.148000
     39 H15         10.7860   -24.4580     7.1630 h1         1 V47       0.043700
     40 H16         11.2160   -22.7870     5.4800 h1         1 V47       0.072700
     41 H17          9.5090   -21.3090     6.3580 ho         1 V47       0.531000
     42 H18         17.1720   -25.2370     3.2850 hn         1 V47       0.504000
     43 H19         16.7120   -25.9740     4.7770 hn         1 V47       0.504000
     44 H2          13.5240   -24.7240     8.2490 h5         1 V47       0.076800
     45 O3           8.9640   -19.3860    15.3710 o          1 V47      -0.714500
     46 O2          10.6420   -19.1370    16.8220 o          1 V47      -0.714500
     47 O1           9.4300   -22.5160    11.6140 o          1 V47      -0.550100
     48 H6          14.7540   -21.4920     2.8670 h5         1 V47       0.043100
@<TRIPOS>BOND
     1     1    21 1   
     2     1    28 1   
     3     2    24 1   
     4     2    25 2   
     5     2    44 1   
     6     3    20 1   
     7     3    22 1   
     8     3    24 1   
     9     3    29 1   
    10     4     9 1   
    11     4    20 1   
    12     4    21 1   
    13     4    30 1   
    14     5     6 ar  
    15     5    25 1   
    16     5    26 ar  
    17     6    10 ar  
    18     6    24 1   
    19     7     8 ar  
    20     7    10 ar  
    21     7    48 1   
    22     8    26 ar  
    23     9    11 1   
    24     9    31 1   
    25     9    32 1   
    26    11    12 1   
    27    11    33 1   
    28    11    34 1   
    29    12    13 1   
    30    12    47 2   
    31    13    14 ar  
    32    13    19 ar  
    33    14    15 ar  
    34    14    35 1   
    35    15    16 ar  
    36    15    36 1   
    37    16    17 ar  
    38    16    37 1   
    39    17    18 1   
    40    17    19 ar  
    41    18    45 1   
    42    18    46 1   
    43    19    38 1   
    44    21    22 1   
    45    21    39 1   
    46    22    23 1   
    47    22    40 1   
    48    23    41 1   
    49    26    27 1   
    50    27    42 1   
    51    27    43 1   
@<TRIPOS>SUBSTRUCTURE
     1 V47         1 TEMP              0 ****  ****    0 ROOT
