@<TRIPOS>MOLECULE
V47
   48    51     1     0     0
SMALL
No Charge or Current Charge


@<TRIPOS>ATOM
      1 O4           8.3640   -23.5800     7.7870 oh         1 V47      -0.712000
      2 C4          13.0090   -24.1200     5.9220 cc         1 V47       0.421700
      3 C5          11.9800   -22.7900     7.8410 c5         1 V47       0.318300
      4 C6          10.4090   -23.8060     9.2270 c5         1 V47       0.126300
      5 C3          15.0790   -23.5790     6.1730 ca         1 V47      -0.097600
      6 C2          14.4110   -22.9240     7.1770 ca         1 V47       0.118500
      7 C1          16.3870   -22.0440     7.9200 ca         1 V47       0.174900
      8 N1          17.1410   -22.6460     6.9670 nb         1 V47      -0.310000
      9 C7          10.1290   -25.0440    10.1160 c3         1 V47      -0.062400
     10 N2          15.0440   -22.1420     8.0730 nb         1 V47      -0.212000
     11 C8          10.8510   -25.0480    11.4910 c3         1 V47      -0.178400
     12 C9          10.4500   -23.8360    12.3560 c          1 V47       0.591700
     13 C10         11.2380   -22.5330    12.3200 ca         1 V47      -0.214600
     14 C11         12.5280   -22.4290    11.7470 ca         1 V47      -0.103000
     15 C12         13.1980   -21.1980    11.7210 ca         1 V47      -0.160000
     16 C13         12.6060   -20.0510    12.2690 ca         1 V47      -0.056000
     17 C14         11.3250   -20.1230    12.8580 ca         1 V47      -0.151600
     18 C15         10.6770   -18.8870    13.4570 c          1 V47       0.715600
     19 C16         10.6550   -21.3690    12.8770 ca         1 V47      -0.025000
     20 O           11.8120   -23.7240     8.9320 os         1 V47      -0.441000
     21 C17          9.7820   -23.8320     7.8030 c5         1 V47       0.094300
     22 C18         10.5640   -22.6510     7.1520 c5         1 V47       0.142300
     23 O5           9.8820   -21.4360     7.4880 oh         1 V47      -0.703000
     24 N4          13.0960   -23.2580     7.0210 na         1 V47      -0.302300
     25 N3          14.2190   -24.3370     5.3710 nd         1 V47      -0.569100
     26 C           16.4770   -23.4140     6.0890 ca         1 V47       0.447900
     27 N           17.2320   -24.0210     5.1340 nv         1 V47      -1.070900
     28 H1           7.9070   -24.4390     7.9610 ho         1 V47       0.522000
     29 H3          12.2820   -21.8110     8.2350 h2         1 V47       0.123700
     30 H4          10.1050   -22.8970     9.7670 h1         1 V47       0.105700
     31 H7           9.0490   -25.1230    10.2920 hc         1 V47       0.041200
     32 H8          10.4140   -25.9530     9.5720 hc         1 V47       0.041200
     33 H9          10.5690   -25.9670    12.0190 hc         1 V47       0.067200
     34 H10         11.9260   -25.0630    11.2970 hc         1 V47       0.067200
     35 H11         13.0330   -23.2850    11.3150 ha         1 V47       0.082000
     36 H12         14.1870   -21.1320    11.2720 ha         1 V47       0.090000
     37 H13         13.1470   -19.1080    12.2360 ha         1 V47       0.129000
     38 H14          9.6640   -21.4280    13.3230 ha         1 V47       0.148000
     39 H15         10.0150   -24.7780     7.2930 h1         1 V47       0.043700
     40 H16         10.6240   -22.7640     6.0600 h1         1 V47       0.072700
     41 H17          8.9590   -21.7610     7.6570 ho         1 V47       0.531000
     42 H18         18.2310   -24.1090     5.3020 hn         1 V47       0.504000
     43 H19         16.7900   -24.7690     4.6050 hn         1 V47       0.504000
     44 H2          12.0700   -24.5450     5.5860 h5         1 V47       0.076800
     45 O3           9.5580   -18.9880    13.9410 o          1 V47      -0.714500
     46 O2          11.2970   -17.8330    13.4360 o          1 V47      -0.714500
     47 O1           9.4490   -23.9260    13.0580 o          1 V47      -0.550100
     48 H6          16.9150   -21.4180     8.6370 h5         1 V47       0.043100
@<TRIPOS>BOND
     1     1    21 1   
     2     1    28 1   
     3     2    24 1   
     4     2    25 2   
     5     2    44 1   
     6     3    20 1   
     7     3    22 1   
     8     3    24 1   
     9     3    29 1   
    10     4     9 1   
    11     4    20 1   
    12     4    21 1   
    13     4    30 1   
    14     5     6 ar  
    15     5    25 1   
    16     5    26 ar  
    17     6    10 ar  
    18     6    24 1   
    19     7     8 ar  
    20     7    10 ar  
    21     7    48 1   
    22     8    26 ar  
    23     9    11 1   
    24     9    31 1   
    25     9    32 1   
    26    11    12 1   
    27    11    33 1   
    28    11    34 1   
    29    12    13 1   
    30    12    47 2   
    31    13    14 ar  
    32    13    19 ar  
    33    14    15 ar  
    34    14    35 1   
    35    15    16 ar  
    36    15    36 1   
    37    16    17 ar  
    38    16    37 1   
    39    17    18 1   
    40    17    19 ar  
    41    18    45 1   
    42    18    46 1   
    43    19    38 1   
    44    21    22 1   
    45    21    39 1   
    46    22    23 1   
    47    22    40 1   
    48    23    41 1   
    49    26    27 1   
    50    27    42 1   
    51    27    43 1   
@<TRIPOS>SUBSTRUCTURE
     1 V47         1 TEMP              0 ****  ****    0 ROOT
