@<TRIPOS>MOLECULE
V48
   36    37     1     0     0
SMALL
No Charge or Current Charge


@<TRIPOS>ATOM
      1 C01        -15.1030   -11.6160    -0.0640 c3         1 V48       0.149900
      2 C03        -16.0830   -13.8440    -0.4770 ca         1 V48       0.140100
      3 C04        -17.1860   -14.7000    -0.3190 ca         1 V48      -0.128000
      4 C05        -17.1550   -16.0140    -0.8260 ca         1 V48      -0.052300
      5 C06        -18.3530   -16.9400    -0.6450 c3         1 V48      -0.082100
      6 C07        -18.1970   -17.7830     0.6220 c          1 V48       0.612100
      7 C09        -17.6640   -20.0500     1.2880 ca         1 V48       0.163100
      8 C10        -16.4710   -20.8040     1.3390 ca         1 V48      -0.159200
      9 C14        -16.3550   -21.8490     2.2840 ca         1 V48      -0.055000
     10 C15        -17.4100   -22.1330     3.1680 ca         1 V48      -0.064000
     11 C16        -18.6040   -21.3840     3.1170 ca         1 V48      -0.150600
     12 C17        -19.7470   -21.6830     4.0520 c          1 V48       0.581500
     13 C18        -18.7240   -20.3480     2.1670 ca         1 V48      -0.087000
     14 C20        -16.0040   -16.4670    -1.4960 ca         1 V48      -0.125000
     15 C21        -14.8970   -15.6180    -1.6580 ca         1 V48      -0.071000
     16 C22        -14.9320   -14.3070    -1.1520 ca         1 V48      -0.188000
     17 N11        -15.3380   -20.5190     0.4150 no         1 V48       0.700200
     18 O02        -16.1760   -12.5690     0.0430 os         1 V48      -0.343100
     19 O08        -17.8270   -19.0710     0.3360 os         1 V48      -0.364200
     20 O12        -15.0420   -19.3370     0.1970 o          1 V48      -0.388000
     21 O13        -14.6420   -21.4760     0.0490 o          1 V48      -0.388000
     22 O19        -18.3700   -17.3480     1.7530 o          1 V48      -0.428000
     23 H1         -15.3850   -10.6700     0.4140 h1         1 V48       0.041033
     24 H2         -14.1980   -11.9900     0.4300 h1         1 V48       0.041033
     25 H3         -14.8700   -11.4080    -1.1160 h1         1 V48       0.041033
     26 H4         -18.0670   -14.3380     0.2040 ha         1 V48       0.124000
     27 H5         -19.2710   -16.3490    -0.5560 hc         1 V48       0.085200
     28 H6         -18.4330   -17.6040    -1.5130 hc         1 V48       0.085200
     29 H7         -15.4430   -22.4420     2.3420 ha         1 V48       0.154000
     30 H8         -17.2960   -22.9390     3.8910 ha         1 V48       0.150000
     31 H9         -20.6490   -21.0430     3.9370 h4         1 V48       0.003200
     32 H12        -19.6480   -19.7770     2.1030 ha         1 V48       0.140000
     33 H13        -15.9630   -17.4810    -1.8900 ha         1 V48       0.126000
     34 H14        -14.0100   -15.9770    -2.1770 ha         1 V48       0.115000
     35 H15        -14.0630   -13.6710    -1.2910 ha         1 V48       0.118000
     36 O1         -19.7120   -22.5710     4.8980 o          1 V48      -0.493100
@<TRIPOS>BOND
     1     1    18 1   
     2     1    23 1   
     3     1    24 1   
     4     1    25 1   
     5     2     3 ar  
     6     2    16 ar  
     7     2    18 1   
     8     3     4 ar  
     9     3    26 1   
    10     4     5 1   
    11     4    14 ar  
    12     5     6 1   
    13     5    27 1   
    14     5    28 1   
    15     6    19 1   
    16     6    22 2   
    17     7     8 ar  
    18     7    13 ar  
    19     7    19 1   
    20     8     9 ar  
    21     8    17 1   
    22     9    10 ar  
    23     9    29 1   
    24    10    11 ar  
    25    10    30 1   
    26    11    12 1   
    27    11    13 ar  
    28    12    31 1   
    29    12    36 2   
    30    13    32 1   
    31    14    15 ar  
    32    14    33 1   
    33    15    16 ar  
    34    15    34 1   
    35    16    35 1   
    36    17    20 1   
    37    17    21 1   
@<TRIPOS>SUBSTRUCTURE
     1 V48         1 TEMP              0 ****  ****    0 ROOT
