@<TRIPOS>MOLECULE
V48
   36    37     1     0     0
SMALL
bcc


@<TRIPOS>ATOM
      1 C01        -15.8090   -11.4160    -0.0190 c3         1 V48       0.126700
      2 C03        -16.1720   -13.7200    -0.4510 ca         1 V48       0.140100
      3 C04        -17.0490   -14.8070    -0.3920 ca         1 V48      -0.146000
      4 C05        -16.6630   -16.0520    -0.8570 ca         1 V48      -0.052300
      5 C06        -17.6090   -17.2150    -0.7950 c3         1 V48      -0.082100
      6 C07        -17.3870   -18.0700     0.4200 c          1 V48       0.661100
      7 C09        -17.8820   -20.1830     1.2670 ca         1 V48       0.163100
      8 C10        -16.8990   -21.1650     1.1730 ca         1 V48      -0.159200
      9 C14        -16.7960   -22.1730     2.1220 ca         1 V48      -0.073000
     10 C15        -17.6660   -22.1910     3.1920 ca         1 V48      -0.082000
     11 C16        -18.6540   -21.2160     3.2950 ca         1 V48      -0.150600
     12 C17        -19.6160   -21.2200     4.4200 c          1 V48       0.581500
     13 C18        -18.7620   -20.2200     2.3330 ca         1 V48      -0.105000
     14 C20        -15.3840   -16.2260    -1.3850 ca         1 V48      -0.143000
     15 C21        -14.5160   -15.1500    -1.4400 ca         1 V48      -0.089000
     16 C22        -14.8960   -13.8950    -0.9780 ca         1 V48      -0.206000
     17 N11        -15.9600   -21.1790     0.0600 no         1 V48       0.320200
     18 O02        -16.6480   -12.5520     0.0200 os         1 V48      -0.319900
     19 O08        -18.0500   -19.2500     0.2880 os         1 V48      -0.364200
     20 O12        -15.5940   -20.1190    -0.3890 o          1 V48      -0.198000
     21 O13        -15.5950   -22.2560    -0.3380 o          1 V48      -0.198000
     22 O19        -16.7550   -17.7960     1.3950 o          1 V48      -0.477000
     23 H1         -16.3870   -10.5910     0.3890 h1         1 V48       0.041033
     24 H2         -14.9110   -11.5500     0.5900 h1         1 V48       0.041033
     25 H3         -15.5080   -11.1640    -1.0390 h1         1 V48       0.041033
     26 H4         -18.0430   -14.6620     0.0160 ha         1 V48       0.142000
     27 H5         -18.6490   -16.8760    -0.7680 hc         1 V48       0.085200
     28 H6         -17.5180   -17.8410    -1.6860 hc         1 V48       0.085200
     29 H7         -16.0290   -22.9290     2.0310 ha         1 V48       0.172000
     30 H8         -17.5780   -22.9670     3.9410 ha         1 V48       0.168000
     31 H9         -20.3460   -20.3940     4.4080 h4         1 V48       0.003200
     32 H12        -19.5430   -19.4720     2.4030 ha         1 V48       0.158000
     33 H13        -15.0750   -17.1970    -1.7540 ha         1 V48       0.144000
     34 H14        -13.5230   -15.2790    -1.8510 ha         1 V48       0.133000
     35 H15        -14.1930   -13.0750    -1.0420 ha         1 V48       0.136000
     36 O1         -19.6190   -22.0530     5.2900 o          1 V48      -0.493100
@<TRIPOS>BOND
     1     1    18 1   
     2     1    23 1   
     3     1    24 1   
     4     1    25 1   
     5     2     3 ar  
     6     2    16 ar  
     7     2    18 1   
     8     3     4 ar  
     9     3    26 1   
    10     4     5 1   
    11     4    14 ar  
    12     5     6 1   
    13     5    27 1   
    14     5    28 1   
    15     6    19 1   
    16     6    22 2   
    17     7     8 ar  
    18     7    13 ar  
    19     7    19 1   
    20     8     9 ar  
    21     8    17 1   
    22     9    10 ar  
    23     9    29 1   
    24    10    11 ar  
    25    10    30 1   
    26    11    12 1   
    27    11    13 ar  
    28    12    31 1   
    29    12    36 2   
    30    13    32 1   
    31    14    15 ar  
    32    14    33 1   
    33    15    16 ar  
    34    15    34 1   
    35    16    35 1   
    36    17    20 1   
    37    17    21 1   
@<TRIPOS>SUBSTRUCTURE
     1 V48         1 TEMP              0 ****  ****    0 ROOT
