@<TRIPOS>MOLECULE
V49
   30    32     1     0     0
SMALL
bcc


@<TRIPOS>ATOM
      1 F14          3.1600    -0.5000     2.2110 f          1 V49      -0.087900
      2 C4           2.3460    -0.5420     1.1670 ca         1 V49       0.196400
      3 C5           2.7060     0.0630    -0.0300 ca         1 V49      -0.290500
      4 S7           4.2670     0.9410    -0.1060 sy         1 V49       1.310200
      5 O9           4.3420     1.7960     1.0610 o          1 V49      -0.594800
      6 N10          5.3130    -0.2940     0.1190 n8         1 V49      -0.926700
      7 O8           4.3760     1.5250    -1.4250 o          1 V49      -0.594800
      8 C6           1.8280    -0.0200    -1.1040 ca         1 V49       0.196400
      9 F12          2.0970     0.5210    -2.2790 f          1 V49      -0.087900
     10 C1           0.6310    -0.7000    -0.9720 ca         1 V49       0.137900
     11 F11         -0.1790    -0.7750    -2.0150 f          1 V49      -0.095400
     12 C3           1.1430    -1.2050     1.2960 ca         1 V49       0.137900
     13 F13          0.8320    -1.7620     2.4550 f          1 V49      -0.095400
     14 C2           0.2690    -1.2900     0.2250 ca         1 V49      -0.024100
     15 S15         -1.2260    -2.1980     0.3740 ss         1 V49      -0.064100
     16 C16         -2.3740    -0.8820     0.2090 cc         1 V49       0.380100
     17 N20         -2.0750     0.3610     0.1660 nd         1 V49      -0.528100
     18 C19         -3.2110     1.1270     0.0240 ca         1 V49       0.098400
     19 C21         -3.2420     2.5180    -0.0580 ca         1 V49      -0.070000
     20 C22         -4.4650     3.1470    -0.1960 ca         1 V49      -0.127000
     21 C23         -5.6530     2.4120    -0.2540 ca         1 V49      -0.114000
     22 C24         -5.6420     1.0300    -0.1730 ca         1 V49      -0.091000
     23 C18         -4.4110     0.4020    -0.0350 ca         1 V49      -0.051100
     24 S17         -4.0640    -1.2940     0.0820 ss         1 V49      -0.059100
     25 H1           5.5960    -0.7580    -0.7380 hn         1 V49       0.436800
     26 H2           6.1040    -0.0470     0.7040 hn         1 V49       0.436800
     27 H3          -2.3210     3.0850    -0.0120 ha         1 V49       0.153000
     28 H4          -4.5050     4.2260    -0.2600 ha         1 V49       0.139000
     29 H5          -6.5960     2.9290    -0.3650 ha         1 V49       0.136000
     30 H6          -6.5610     0.4620    -0.2190 ha         1 V49       0.144000
@<TRIPOS>BOND
     1     1     2 1   
     2     2     3 ar  
     3     2    12 ar  
     4     3     4 1   
     5     3     8 ar  
     6     4     5 2   
     7     4     6 1   
     8     4     7 2   
     9     6    25 1   
    10     6    26 1   
    11     8     9 1   
    12     8    10 ar  
    13    10    11 1   
    14    10    14 ar  
    15    12    13 1   
    16    12    14 ar  
    17    14    15 1   
    18    15    16 1   
    19    16    17 2   
    20    16    24 1   
    21    17    18 1   
    22    18    19 ar  
    23    18    23 ar  
    24    19    20 ar  
    25    19    27 1   
    26    20    21 ar  
    27    20    28 1   
    28    21    22 ar  
    29    21    29 1   
    30    22    23 ar  
    31    22    30 1   
    32    23    24 1   
@<TRIPOS>SUBSTRUCTURE
     1 V49         1 TEMP              0 ****  ****    0 ROOT
