@<TRIPOS>MOLECULE
V49
   30    32     1     0     0
SMALL
No Charge or Current Charge


@<TRIPOS>ATOM
      1 F14          2.7730    -0.1000     2.3120 f          1 V49      -0.123000
      2 C4           2.0830    -0.3950     1.1850 ca         1 V49       0.231500
      3 C5           2.5360     0.0400    -0.0810 ca         1 V49      -0.290500
      4 S7           4.0340     1.0120    -0.1980 sy         1 V49       1.168600
      5 O9           4.1630     1.9150     0.9420 o          1 V49      -0.524000
      6 N10          5.2000    -0.0920     0.0750 n8         1 V49      -1.037100
      7 O8           4.3020     1.4600    -1.5610 o          1 V49      -0.524000
      8 C6           1.7930    -0.3220    -1.2290 ca         1 V49       0.231500
      9 F12          2.1840     0.0510    -2.4690 f          1 V49      -0.123000
     10 C1           0.6160    -1.0900    -1.1050 ca         1 V49       0.173000
     11 F11         -0.0850    -1.4290    -2.2130 f          1 V49      -0.130500
     12 C3           0.9060    -1.1630     1.3010 ca         1 V49       0.173000
     13 F13          0.4860    -1.5710     2.5220 f          1 V49      -0.130500
     14 C2           0.1610    -1.5080     0.1590 ca         1 V49      -0.151000
     15 S15         -1.3490    -2.4770     0.3160 ss         1 V49       0.062800
     16 C16         -2.4270    -1.0710     0.1600 cc         1 V49       0.380100
     17 N20         -1.9700     0.1880     0.2750 nd         1 V49      -0.528100
     18 C19         -3.0680     1.0250     0.1270 ca         1 V49       0.098400
     19 C21         -2.9910     2.4270     0.1770 ca         1 V49      -0.052000
     20 C22         -4.1650     3.1910     0.0160 ca         1 V49      -0.109000
     21 C23         -5.4050     2.5500    -0.1930 ca         1 V49      -0.096000
     22 C24         -5.4730     1.1450    -0.2400 ca         1 V49      -0.073000
     23 C18         -4.2890     0.4090    -0.0770 ca         1 V49      -0.178000
     24 S17         -4.1610    -1.3440    -0.1010 ss         1 V49       0.067800
     25 H1           5.7940     0.0740    -0.7350 hn         1 V49       0.492000
     26 H2           5.7170     0.3780     0.8150 hn         1 V49       0.492000
     27 H3          -2.0330     2.9160     0.3380 ha         1 V49       0.135000
     28 H4          -4.1140     4.2770     0.0530 ha         1 V49       0.121000
     29 H5          -6.3090     3.1420    -0.3160 ha         1 V49       0.118000
     30 H6          -6.4250     0.6420    -0.3990 ha         1 V49       0.126000
@<TRIPOS>BOND
     1     1     2 1   
     2     2     3 ar  
     3     2    12 ar  
     4     3     4 1   
     5     3     8 ar  
     6     4     5 2   
     7     4     6 1   
     8     4     7 2   
     9     6    25 1   
    10     6    26 1   
    11     8     9 1   
    12     8    10 ar  
    13    10    11 1   
    14    10    14 ar  
    15    12    13 1   
    16    12    14 ar  
    17    14    15 1   
    18    15    16 1   
    19    16    17 2   
    20    16    24 1   
    21    17    18 1   
    22    18    19 ar  
    23    18    23 ar  
    24    19    20 ar  
    25    19    27 1   
    26    20    21 ar  
    27    20    28 1   
    28    21    22 ar  
    29    21    29 1   
    30    22    23 ar  
    31    22    30 1   
    32    23    24 1   
@<TRIPOS>SUBSTRUCTURE
     1 V49         1 TEMP              0 ****  ****    0 ROOT
