@<TRIPOS>MOLECULE
V4B
   34    35     1     0     0
SMALL
abcg2


@<TRIPOS>ATOM
      1 C01         24.6650    16.4780    -0.2510 c3         1 V4B      -0.148400
      2 C02         25.1710    17.0600     1.0340 ca         1 V4B       0.427300
      3 C03         25.0570    18.4150     1.4040 ca         1 V4B      -0.167600
      4 C04         24.4860    19.4970     0.5680 c          1 V4B       0.625700
      5 C06         24.0960    20.1700    -1.6340 ca         1 V4B       0.159100
      6 C07         24.6800    21.4210    -1.8210 ca         1 V4B      -0.158200
      7 C11         24.1720    22.3120    -2.7570 ca         1 V4B      -0.052000
      8 C12         23.0840    21.9530    -3.5260 ca         1 V4B      -0.063000
      9 C13         22.4910    20.7080    -3.3410 ca         1 V4B      -0.149600
     10 C14         21.3170    20.2950    -4.1440 c          1 V4B       0.580500
     11 C15         22.9900    19.8280    -2.3910 ca         1 V4B      -0.089000
     12 C17         25.4970    18.8030     2.6630 ca         1 V4B      -0.020000
     13 C18         26.0780    17.8790     3.5140 ca         1 V4B      -0.130000
     14 C19         26.1770    16.5850     3.0460 ca         1 V4B       0.280300
     15 C20         26.8460    15.5000     3.8530 c3         1 V4B       0.266700
     16 F21         28.0580    15.2240     3.3580 f          1 V4B      -0.102333
     17 F22         27.0090    15.8520     5.1300 f          1 V4B      -0.102333
     18 F23         26.1450    14.3670     3.8350 f          1 V4B      -0.102333
     19 N08         25.8520    21.8380    -1.0620 no         1 V4B       0.698200
     20 N24         25.7320    16.1900     1.8660 nb         1 V4B      -0.659000
     21 O05         24.5680    19.2410    -0.7500 os         1 V4B      -0.333200
     22 O09         26.6340    20.9870    -0.7150 o          1 V4B      -0.383000
     23 O10         25.9770    23.0170    -0.8440 o          1 V4B      -0.383000
     24 O16         24.0310    20.5180     0.9990 o          1 V4B      -0.451000
     25 H1          24.6650    15.3940    -0.1700 hc         1 V4B       0.064033
     26 H2          23.6530    16.8070    -0.4830 hc         1 V4B       0.064033
     27 H3          25.3010    16.7530    -1.0920 hc         1 V4B       0.064033
     28 H4          24.6350    23.2790    -2.8930 ha         1 V4B       0.157000
     29 H5          22.6980    22.6420    -4.2650 ha         1 V4B       0.152000
     30 H6          20.9180    19.2960    -3.9000 h4         1 V4B       0.003200
     31 H9          22.5250    18.8610    -2.2350 ha         1 V4B       0.140000
     32 H10         25.4020    19.8330     2.9790 ha         1 V4B       0.150000
     33 H11         26.4330    18.1760     4.4890 ha         1 V4B       0.152000
     34 O1          20.8220    20.9800    -5.0020 o          1 V4B      -0.489100
@<TRIPOS>BOND
     1     1     2 1   
     2     1    25 1   
     3     1    26 1   
     4     1    27 1   
     5     2     3 ar  
     6     2    20 ar  
     7     3     4 1   
     8     3    12 ar  
     9     4    21 1   
    10     4    24 2   
    11     5     6 ar  
    12     5    11 ar  
    13     5    21 1   
    14     6     7 ar  
    15     6    19 1   
    16     7     8 ar  
    17     7    28 1   
    18     8     9 ar  
    19     8    29 1   
    20     9    10 1   
    21     9    11 ar  
    22    10    30 1   
    23    10    34 2   
    24    11    31 1   
    25    12    13 ar  
    26    12    32 1   
    27    13    14 ar  
    28    13    33 1   
    29    14    15 1   
    30    14    20 ar  
    31    15    16 1   
    32    15    17 1   
    33    15    18 1   
    34    19    22 1   
    35    19    23 1   
@<TRIPOS>SUBSTRUCTURE
     1 V4B         1 TEMP              0 ****  ****    0 ROOT
