@<TRIPOS>MOLECULE
V4B
   34    35     1     0     0
SMALL
No Charge or Current Charge


@<TRIPOS>ATOM
      1 C01         24.3570    16.5230    -0.1230 c3         1 V4B      -0.148400
      2 C02         25.0590    17.0750     1.1090 ca         1 V4B       0.427300
      3 C03         25.0670    18.4440     1.4620 ca         1 V4B      -0.167600
      4 C04         24.4300    19.5030     0.6160 c          1 V4B       0.625700
      5 C06         24.1430    20.2180    -1.6680 ca         1 V4B       0.159100
      6 C07         24.7120    21.5020    -1.8440 ca         1 V4B      -0.158200
      7 C11         24.1510    22.3700    -2.8100 ca         1 V4B      -0.052000
      8 C12         23.0600    21.9590    -3.5950 ca         1 V4B      -0.063000
      9 C13         22.5070    20.6720    -3.4310 ca         1 V4B      -0.149600
     10 C14         21.3410    20.2170    -4.2690 c          1 V4B       0.580500
     11 C15         23.0580    19.8090    -2.4630 ca         1 V4B      -0.089000
     12 C17         25.6880    18.8200     2.6700 ca         1 V4B      -0.020000
     13 C18         26.2930    17.8310     3.4580 ca         1 V4B      -0.130000
     14 C19         26.2610    16.4910     3.0330 ca         1 V4B       0.280300
     15 C20         26.9250    15.3960     3.8940 c3         1 V4B       0.266700
     16 F21         28.2390    15.6510     4.0950 f          1 V4B      -0.102333
     17 F22         26.3520    15.3110     5.1170 f          1 V4B      -0.102333
     18 F23         26.8500    14.1590     3.3430 f          1 V4B      -0.102333
     19 N08         25.8860    21.9640    -1.0430 no         1 V4B       0.698200
     20 N24         25.6450    16.1260     1.8780 nb         1 V4B      -0.659000
     21 O05         24.6130    19.3330    -0.7290 os         1 V4B      -0.333200
     22 O09         26.7470    21.1340    -0.7240 o          1 V4B      -0.383000
     23 O10         26.0010    23.1800    -0.8390 o          1 V4B      -0.383000
     24 O16         23.8270    20.4520     1.0970 o          1 V4B      -0.451000
     25 H1          24.2090    15.4390    -0.0550 hc         1 V4B       0.064033
     26 H2          23.3670    16.9750    -0.2520 hc         1 V4B       0.064033
     27 H3          24.9450    16.7160    -1.0270 hc         1 V4B       0.064033
     28 H4          24.5650    23.3660    -2.9680 ha         1 V4B       0.157000
     29 H5          22.6490    22.6440    -4.3350 ha         1 V4B       0.152000
     30 H6          20.9710    19.1870    -4.0680 h4         1 V4B       0.003200
     31 H9          22.6420    18.8150    -2.3160 ha         1 V4B       0.140000
     32 H10         25.7100    19.8620     2.9870 ha         1 V4B       0.150000
     33 H11         26.7850    18.0990     4.3900 ha         1 V4B       0.152000
     34 O1          20.8110    20.9170    -5.1270 o          1 V4B      -0.489100
@<TRIPOS>BOND
     1     1     2 1   
     2     1    25 1   
     3     1    26 1   
     4     1    27 1   
     5     2     3 ar  
     6     2    20 ar  
     7     3     4 1   
     8     3    12 ar  
     9     4    21 1   
    10     4    24 2   
    11     5     6 ar  
    12     5    11 ar  
    13     5    21 1   
    14     6     7 ar  
    15     6    19 1   
    16     7     8 ar  
    17     7    28 1   
    18     8     9 ar  
    19     8    29 1   
    20     9    10 1   
    21     9    11 ar  
    22    10    30 1   
    23    10    34 2   
    24    11    31 1   
    25    12    13 ar  
    26    12    32 1   
    27    13    14 ar  
    28    13    33 1   
    29    14    15 1   
    30    14    20 ar  
    31    15    16 1   
    32    15    17 1   
    33    15    18 1   
    34    19    22 1   
    35    19    23 1   
@<TRIPOS>SUBSTRUCTURE
     1 V4B         1 TEMP              0 ****  ****    0 ROOT
