@<TRIPOS>MOLECULE
V4C
   36    37     1     0     0
SMALL
abcg2


@<TRIPOS>ATOM
      1 N1          -3.2540    17.9510   -33.5940 nc         1 V4C      -0.526800
      2 C7          -3.5480    16.1770   -34.9470 cd         1 V4C      -0.453500
      3 C8          -2.7310    17.2760   -34.6090 cd         1 V4C       0.340900
      4 N2          -4.3930    17.2940   -33.2700 na         1 V4C       0.132800
      5 C9          -4.6070    16.2250   -34.0520 cc         1 V4C      -0.044000
      6 O1          -2.3510    15.5130   -37.1260 o          1 V4C      -0.550500
      7 C1          -0.0240    13.6250   -36.1480 c3         1 V4C      -0.071700
      8 C5          -2.9110    11.5890   -34.1290 cx         1 V4C      -0.109400
      9 C6          -4.2210    12.0320   -34.7150 cx         1 V4C      -0.109400
     10 C4          -3.1870    13.0490   -34.3470 cx         1 V4C       0.102500
     11 C3          -1.0230    14.0110   -35.0560 c3         1 V4C       0.206800
     12 C2          -0.1130    12.1460   -36.5140 c3         1 V4C      -0.084100
     13 S           -3.2520    14.9540   -36.1470 sy         1 V4C       1.229600
     14 O           -4.5290    14.4400   -36.5800 o          1 V4C      -0.550500
     15 N           -2.4410    13.7270   -35.3890 n3         1 V4C      -0.695500
     16 C            1.3830    13.9980   -35.6770 c3         1 V4C      -0.084100
     17 C10         -5.2290    17.7780   -32.1860 c3         1 V4C       0.068900
     18 H1          -1.8090    17.5920   -35.0700 h4         1 V4C       0.057100
     19 H2          -5.4690    15.5900   -33.9370 h4         1 V4C       0.170000
     20 H3          -0.2580    14.2160   -37.0360 hc         1 V4C       0.081700
     21 H4          -2.2020    11.1170   -34.7940 hc         1 V4C       0.084200
     22 H5          -2.8830    11.2430   -33.1050 hc         1 V4C       0.084200
     23 H6          -4.3770    11.8580   -35.7690 hc         1 V4C       0.084200
     24 H7          -5.1130    11.9870   -34.1040 hc         1 V4C       0.084200
     25 H8          -3.3650    13.6450   -33.4570 h1         1 V4C       0.067700
     26 H9          -0.8100    13.4370   -34.1530 h1         1 V4C       0.044700
     27 H10         -0.8960    15.0660   -34.7950 h1         1 V4C       0.044700
     28 H11         -1.1120    11.8840   -36.8650 hc         1 V4C       0.034533
     29 H12          0.5990    11.9050   -37.3060 hc         1 V4C       0.034533
     30 H13          0.1190    11.5170   -35.6490 hc         1 V4C       0.034533
     31 H14          1.4560    15.0620   -35.4430 hc         1 V4C       0.034533
     32 H15          1.6540    13.4360   -34.7780 hc         1 V4C       0.034533
     33 H16          2.1200    13.7690   -36.4490 hc         1 V4C       0.034533
     34 H17         -4.6560    17.7900   -31.2600 h1         1 V4C       0.062700
     35 H18         -5.5780    18.7840   -32.4130 h1         1 V4C       0.062700
     36 H19         -6.0790    17.1080   -32.0830 h1         1 V4C       0.062700
@<TRIPOS>BOND
     1     1     3 2   
     2     1     4 1   
     3     2     3 1   
     4     2     5 2   
     5     2    13 1   
     6     3    18 1   
     7     4     5 1   
     8     4    17 1   
     9     5    19 1   
    10     6    13 2   
    11     7    11 1   
    12     7    12 1   
    13     7    16 1   
    14     7    20 1   
    15     8     9 1   
    16     8    10 1   
    17     8    21 1   
    18     8    22 1   
    19     9    10 1   
    20     9    23 1   
    21     9    24 1   
    22    10    15 1   
    23    10    25 1   
    24    11    15 1   
    25    11    26 1   
    26    11    27 1   
    27    12    28 1   
    28    12    29 1   
    29    12    30 1   
    30    13    14 2   
    31    13    15 1   
    32    16    31 1   
    33    16    32 1   
    34    16    33 1   
    35    17    34 1   
    36    17    35 1   
    37    17    36 1   
@<TRIPOS>SUBSTRUCTURE
     1 V4C         1 TEMP              0 ****  ****    0 ROOT
