@<TRIPOS>MOLECULE
V4C
   36    37     1     0     0
SMALL
No Charge or Current Charge


@<TRIPOS>ATOM
      1 N1          -4.5840    17.2130   -32.7910 nc         1 V4C      -0.526800
      2 C7          -3.3680    16.2910   -34.4660 cd         1 V4C      -0.453500
      3 C8          -3.3690    17.0260   -33.2720 cd         1 V4C       0.340900
      4 N2          -5.3830    16.5760   -33.7200 na         1 V4C       0.132800
      5 C9          -4.6720    16.0060   -34.7710 cc         1 V4C      -0.044000
      6 O1          -0.8200    16.6980   -35.0150 o          1 V4C      -0.550500
      7 C1          -0.1950    13.3110   -36.7090 c3         1 V4C      -0.071700
      8 C5          -2.1120    12.6440   -32.9130 cx         1 V4C      -0.109400
      9 C6          -3.3110    13.5490   -33.0240 cx         1 V4C      -0.109400
     10 C4          -1.9410    14.0670   -33.4020 cx         1 V4C       0.102500
     11 C3          -0.3340    13.7160   -35.2140 c3         1 V4C       0.206800
     12 C2          -1.2740    12.2880   -37.1410 c3         1 V4C      -0.084100
     13 S           -1.9470    15.8500   -35.4170 sy         1 V4C       1.229600
     14 O           -2.3800    15.7050   -36.8120 o          1 V4C      -0.550500
     15 N           -1.6530    14.2680   -34.8070 n3         1 V4C      -0.695500
     16 C            1.2240    12.7740   -37.0040 c3         1 V4C      -0.084100
     17 C10         -6.8410    16.5500   -33.5420 c3         1 V4C       0.068900
     18 H1          -2.5180    17.4290   -32.7360 h4         1 V4C       0.057100
     19 H2          -5.1320    15.4720   -35.5940 h4         1 V4C       0.170000
     20 H3          -0.3200    14.2080   -37.3250 hc         1 V4C       0.081700
     21 H4          -2.0310    11.8340   -33.6340 hc         1 V4C       0.084200
     22 H5          -1.7450    12.4070   -31.9180 hc         1 V4C       0.084200
     23 H6          -4.0190    13.3470   -33.8240 hc         1 V4C       0.084200
     24 H7          -3.7540    13.9270   -32.1070 hc         1 V4C       0.084200
     25 H8          -1.4480    14.7600   -32.7180 h1         1 V4C       0.067700
     26 H9          -0.1210    12.8070   -34.6360 h1         1 V4C       0.044700
     27 H10          0.4660    14.4230   -34.9570 h1         1 V4C       0.044700
     28 H11         -2.2810    12.6990   -37.0090 hc         1 V4C       0.034533
     29 H12         -1.1560    12.0240   -38.1990 hc         1 V4C       0.034533
     30 H13         -1.1990    11.3690   -36.5470 hc         1 V4C       0.034533
     31 H14          1.9840    13.5200   -36.7420 hc         1 V4C       0.034533
     32 H15          1.4250    11.8620   -36.4280 hc         1 V4C       0.034533
     33 H16          1.3360    12.5380   -38.0690 hc         1 V4C       0.034533
     34 H17         -7.0850    16.0400   -32.6030 h1         1 V4C       0.062700
     35 H18         -7.2240    17.5770   -33.5100 h1         1 V4C       0.062700
     36 H19         -7.3080    16.0160   -34.3770 h1         1 V4C       0.062700
@<TRIPOS>BOND
     1     1     3 2   
     2     1     4 1   
     3     2     3 1   
     4     2     5 2   
     5     2    13 1   
     6     3    18 1   
     7     4     5 1   
     8     4    17 1   
     9     5    19 1   
    10     6    13 2   
    11     7    11 1   
    12     7    12 1   
    13     7    16 1   
    14     7    20 1   
    15     8     9 1   
    16     8    10 1   
    17     8    21 1   
    18     8    22 1   
    19     9    10 1   
    20     9    23 1   
    21     9    24 1   
    22    10    15 1   
    23    10    25 1   
    24    11    15 1   
    25    11    26 1   
    26    11    27 1   
    27    12    28 1   
    28    12    29 1   
    29    12    30 1   
    30    13    14 2   
    31    13    15 1   
    32    16    31 1   
    33    16    32 1   
    34    16    33 1   
    35    17    34 1   
    36    17    35 1   
    37    17    36 1   
@<TRIPOS>SUBSTRUCTURE
     1 V4C         1 TEMP              0 ****  ****    0 ROOT
