@<TRIPOS>MOLECULE
V4D
   43    46     1     0     0
SMALL
abcg2


@<TRIPOS>ATOM
      1 C4          37.0960   -13.6690    78.2110 ca         1 V4D       0.021500
      2 C5          38.2280   -14.4180    77.9150 ca         1 V4D      -0.315500
      3 C6          38.1210   -15.5750    77.1560 ca         1 V4D       0.021500
      4 N1          32.3940   -15.9520    75.8120 nb         1 V4D      -0.372000
      5 C7          36.8830   -15.9680    76.6900 ca         1 V4D      -0.178500
      6 C8          31.7780   -13.6390    76.9150 ca         1 V4D       0.432300
      7 C9          30.2710   -11.9100    77.4060 ca         1 V4D       0.077100
      8 C10         29.9540   -11.1460    76.2760 ca         1 V4D      -0.086000
      9 C11         28.7270   -10.5240    76.1780 ca         1 V4D      -0.119000
     10 C12         27.8310   -10.6870    77.2330 ca         1 V4D      -0.050200
     11 N3          40.0280   -12.5050    77.6660 n8         1 V4D      -1.003100
     12 C13         26.0820   -10.6240    78.6100 cc         1 V4D      -0.162100
     13 C14         27.0130   -11.3990    79.2400 cd         1 V4D      -0.235200
     14 C15         28.1480   -11.4560    78.3760 ca         1 V4D      -0.094800
     15 N4          33.0410   -14.0230    77.0140 nb         1 V4D      -0.312000
     16 C           31.1580   -15.4560    75.7890 ca         1 V4D       0.461900
     17 O           39.6710   -13.4780    79.9170 o          1 V4D      -0.549000
     18 C1          33.2880   -15.1920    76.4360 ca         1 V4D       0.453900
     19 C16         29.4000   -12.0800    78.4550 ca         1 V4D      -0.046000
     20 C2          35.7340   -15.2170    76.9670 ca         1 V4D       0.374000
     21 C3          35.8550   -14.0570    77.7430 ca         1 V4D      -0.178500
     22 N5          26.5700   -10.1980    77.4090 na         1 V4D      -0.221700
     23 N6          30.7960   -14.2810    76.3340 nb         1 V4D      -0.361000
     24 O1          40.7680   -14.9320    78.2060 o          1 V4D      -0.549000
     25 S           39.7940   -13.8960    78.5270 sy         1 V4D       1.134600
     26 H1          37.1680   -12.7680    78.8070 ha         1 V4D       0.137000
     27 H2          38.9910   -16.1730    76.9210 ha         1 V4D       0.137000
     28 H3          36.8060   -16.8700    76.0950 ha         1 V4D       0.140500
     29 H4          34.6200   -16.5790    75.9500 hn         1 V4D       0.515000
     30 H5          30.6800   -11.0420    75.4800 ha         1 V4D       0.125000
     31 H6          28.4750    -9.9300    75.3090 ha         1 V4D       0.117000
     32 H7          40.7480   -11.9250    78.0850 hn         1 V4D       0.471000
     33 H8          40.2420   -12.6800    76.6890 hn         1 V4D       0.471000
     34 H9          25.0930   -10.3390    78.9290 h4         1 V4D       0.213000
     35 H10         26.9020   -11.8720    80.2030 ha         1 V4D       0.208000
     36 H11         30.4240   -17.0480    74.7570 hn         1 V4D       0.511500
     37 H12         29.2650   -15.8230    75.1460 hn         1 V4D       0.511500
     38 H13         29.6780   -12.6750    79.3160 ha         1 V4D       0.131000
     39 H14         34.9890   -13.4630    77.9780 ha         1 V4D       0.140500
     40 H15         26.0760    -9.6050    76.7630 hn         1 V4D       0.350000
     41 N2          34.5470   -15.7020    76.4470 nu         1 V4D      -0.923900
     42 O2          31.5410   -12.4630    77.4910 os         1 V4D      -0.337400
     43 N           30.2090   -16.1650    75.1870 nv         1 V4D      -1.062900
@<TRIPOS>BOND
     1     1     2 ar  
     2     1    21 ar  
     3     1    26 1   
     4     2     3 ar  
     5     2    25 1   
     6     3     5 ar  
     7     3    27 1   
     8     4    16 ar  
     9     4    18 ar  
    10     5    20 ar  
    11     5    28 1   
    12     6    15 ar  
    13     6    23 ar  
    14     6    42 1   
    15     7     8 ar  
    16     7    19 ar  
    17     7    42 1   
    18     8     9 ar  
    19     8    30 1   
    20     9    10 ar  
    21     9    31 1   
    22    10    14 ar  
    23    10    22 1   
    24    11    25 1   
    25    11    32 1   
    26    11    33 1   
    27    12    13 2   
    28    12    22 1   
    29    12    34 1   
    30    13    14 1   
    31    13    35 1   
    32    14    19 ar  
    33    15    18 ar  
    34    16    23 ar  
    35    16    43 1   
    36    17    25 2   
    37    18    41 1   
    38    19    38 1   
    39    20    21 ar  
    40    20    41 1   
    41    21    39 1   
    42    22    40 1   
    43    24    25 2   
    44    29    41 1   
    45    36    43 1   
    46    37    43 1   
@<TRIPOS>SUBSTRUCTURE
     1 V4D         1 TEMP              0 ****  ****    0 ROOT
