@<TRIPOS>MOLECULE
V4D
   43    46     1     0     0
SMALL
No Charge or Current Charge


@<TRIPOS>ATOM
      1 C4          36.9570   -13.6560    78.5030 ca         1 V4D       0.021500
      2 C5          38.1570   -14.2950    78.1320 ca         1 V4D      -0.315500
      3 C6          38.1150   -15.4290    77.2970 ca         1 V4D       0.021500
      4 N1          32.3090   -16.1910    76.1030 nb         1 V4D      -0.372000
      5 C7          36.8790   -15.9100    76.8340 ca         1 V4D      -0.178500
      6 C8          31.7730   -13.5490    76.2450 ca         1 V4D       0.432300
      7 C9          30.3190   -11.6540    76.6540 ca         1 V4D       0.077100
      8 C10         29.8380   -10.5250    75.9460 ca         1 V4D      -0.086000
      9 C11         28.6070    -9.9260    76.2960 ca         1 V4D      -0.119000
     10 C12         27.8930   -10.4810    77.3660 ca         1 V4D      -0.050200
     11 N3          40.0730   -12.5330    77.6150 n8         1 V4D      -1.003100
     12 C13         26.3320   -10.9260    78.9900 cc         1 V4D      -0.162100
     13 C14         27.3820   -11.8320    79.0720 cd         1 V4D      -0.235200
     14 C15         28.3650   -11.5610    78.0560 ca         1 V4D      -0.094800
     15 N4          33.0240   -13.9590    76.5330 nb         1 V4D      -0.312000
     16 C           31.1140   -15.6690    75.8320 ca         1 V4D       0.461900
     17 O           39.5380   -12.9330    79.9840 o          1 V4D      -0.549000
     18 C1          33.2230   -15.2830    76.4590 ca         1 V4D       0.453900
     19 C16         29.5790   -12.1820    77.7410 ca         1 V4D      -0.046000
     20 C2          35.6820   -15.2690    77.1860 ca         1 V4D       0.374000
     21 C3          35.7280   -14.1470    78.0330 ca         1 V4D      -0.178500
     22 N5          26.6790   -10.0860    77.9080 na         1 V4D      -0.221700
     23 N6          30.7750   -14.3810    75.8750 nb         1 V4D      -0.361000
     24 O1          40.7680   -14.6750    78.5490 o          1 V4D      -0.549000
     25 S           39.7240   -13.6700    78.7340 sy         1 V4D       1.134600
     26 H1          36.9710   -12.7840    79.1560 ha         1 V4D       0.137000
     27 H2          39.0310   -15.9420    77.0050 ha         1 V4D       0.137000
     28 H3          36.8570   -16.7840    76.1900 ha         1 V4D       0.140500
     29 H4          34.5540   -16.7660    76.4070 hn         1 V4D       0.515000
     30 H5          30.4210   -10.1190    75.1230 ha         1 V4D       0.125000
     31 H6          28.2290    -9.0620    75.7540 ha         1 V4D       0.117000
     32 H7          41.0160   -12.8080    77.3510 hn         1 V4D       0.471000
     33 H8          39.5040   -12.8270    76.8260 hn         1 V4D       0.471000
     34 H9          25.4220   -10.8140    79.5760 h4         1 V4D       0.213000
     35 H10         27.4460   -12.6340    79.8040 ha         1 V4D       0.208000
     36 H11         30.4380   -17.4650    75.1810 hn         1 V4D       0.511500
     37 H12         29.3210   -16.1580    75.0140 hn         1 V4D       0.511500
     38 H13         29.9370   -13.0340    78.3140 ha         1 V4D       0.131000
     39 H14         34.8140   -13.6570    78.3490 ha         1 V4D       0.140500
     40 H15         26.1230    -9.3040    77.5720 hn         1 V4D       0.350000
     41 N2          34.4800   -15.7970    76.7090 nu         1 V4D      -0.923900
     42 O2          31.5340   -12.1940    76.2930 os         1 V4D      -0.337400
     43 N           30.1500   -16.5330    75.4660 nv         1 V4D      -1.062900
@<TRIPOS>BOND
     1     1     2 ar  
     2     1    21 ar  
     3     1    26 1   
     4     2     3 ar  
     5     2    25 1   
     6     3     5 ar  
     7     3    27 1   
     8     4    16 ar  
     9     4    18 ar  
    10     5    20 ar  
    11     5    28 1   
    12     6    15 ar  
    13     6    23 ar  
    14     6    42 1   
    15     7     8 ar  
    16     7    19 ar  
    17     7    42 1   
    18     8     9 ar  
    19     8    30 1   
    20     9    10 ar  
    21     9    31 1   
    22    10    14 ar  
    23    10    22 1   
    24    11    25 1   
    25    11    32 1   
    26    11    33 1   
    27    12    13 2   
    28    12    22 1   
    29    12    34 1   
    30    13    14 1   
    31    13    35 1   
    32    14    19 ar  
    33    15    18 ar  
    34    16    23 ar  
    35    16    43 1   
    36    17    25 2   
    37    18    41 1   
    38    19    38 1   
    39    20    21 ar  
    40    20    41 1   
    41    21    39 1   
    42    22    40 1   
    43    24    25 2   
    44    29    41 1   
    45    36    43 1   
    46    37    43 1   
@<TRIPOS>SUBSTRUCTURE
     1 V4D         1 TEMP              0 ****  ****    0 ROOT
