@<TRIPOS>MOLECULE
V4F
   31    32     1     0     0
SMALL
abcg2


@<TRIPOS>ATOM
      1 C           -7.5640   -19.4590    20.4410 c          1 V4F       0.612500
      2 CAF        -10.3920   -21.7790    19.3950 ca         1 V4F       0.195100
      3 CAD         -9.3700   -21.2170    20.1220 ca         1 V4F      -0.270000
      4 CAE         -8.7170   -20.0700    19.6240 ca         1 V4F       0.338500
      5 CAL        -10.7500   -21.1830    18.1490 ca         1 V4F      -0.143000
      6 CAM        -10.0340   -20.0280    17.7490 ca         1 V4F       0.311000
      7 CAJ        -10.3490   -19.4200    16.4980 ca         1 V4F      -0.102300
      8 CAK        -11.3270   -19.9780    15.7140 ca         1 V4F      -0.123000
      9 CAG        -12.0310   -21.1290    16.1130 ca         1 V4F      -0.218000
     10 CAI        -11.7530   -21.7220    17.3150 ca         1 V4F      -0.007000
     11 C01        -10.6200   -23.6910    20.8110 c3         1 V4F      -0.130400
     12 CA          -9.6550   -18.1620    16.0530 c3         1 V4F       0.213100
     13 NAH         -9.0360   -19.4960    18.4910 nb         1 V4F      -0.720000
     14 N          -10.2560   -16.9960    16.6930 n8         1 V4F      -0.953200
     15 O           -7.3240   -20.0130    21.5310 o          1 V4F      -0.728000
     16 O3         -10.9410   -26.0580    21.9610 o          1 V4F      -0.930500
     17 O2         -13.0560   -24.6570    21.4950 o          1 V4F      -0.930500
     18 O1         -11.8020   -25.7800    19.5470 o          1 V4F      -0.930500
     19 P          -11.7270   -25.2020    20.9630 p5         1 V4F       1.304500
     20 HAD         -9.0520   -21.6310    21.0660 ha         1 V4F       0.155000
     21 HAK        -11.5600   -19.5230    14.7580 ha         1 V4F       0.055000
     22 HAG        -12.7920   -21.5440    15.4650 ha         1 V4F       0.076000
     23 HAI        -12.2860   -22.6110    17.6220 ha         1 V4F       0.153000
     24 H3          -9.5830   -23.9800    20.5990 h1         1 V4F       0.009700
     25 HA1         -8.6040   -18.2010    16.3400 h1         1 V4F       0.021200
     26 HA2         -9.6850   -18.1200    14.9560 h1         1 V4F       0.021200
     27 H           -9.7420   -16.1680    16.4190 hn         1 V4F       0.357500
     28 H2         -11.1940   -16.8680    16.3330 hn         1 V4F       0.357500
     29 OXT         -6.9810   -18.4850    19.9400 o          1 V4F      -0.728000
     30 H1         -10.6090   -23.1230    21.7490 h1         1 V4F       0.009700
     31 O01        -11.0860   -22.8530    19.7450 os         1 V4F      -0.278100
@<TRIPOS>BOND
     1     1     4 1   
     2     1    15 1   
     3     1    29 1   
     4     2     3 ar  
     5     2     5 ar  
     6     2    31 1   
     7     3     4 ar  
     8     3    20 1   
     9     4    13 ar  
    10     5     6 ar  
    11     5    10 ar  
    12     6     7 ar  
    13     6    13 ar  
    14     7     8 ar  
    15     7    12 1   
    16     8     9 ar  
    17     8    21 1   
    18     9    10 ar  
    19     9    22 1   
    20    10    23 1   
    21    11    19 1   
    22    11    24 1   
    23    11    30 1   
    24    11    31 1   
    25    12    14 1   
    26    12    25 1   
    27    12    26 1   
    28    14    27 1   
    29    14    28 1   
    30    16    19 1   
    31    17    19 1   
    32    18    19 1   
@<TRIPOS>SUBSTRUCTURE
     1 V4F         1 TEMP              0 ****  ****    0 ROOT
