@<TRIPOS>MOLECULE
V4F
   31    32     1     0     0
SMALL
No Charge or Current Charge


@<TRIPOS>ATOM
      1 C           -7.3900   -19.6110    20.5510 c          1 V4F       0.612500
      2 CAF        -10.2950   -21.8460    19.3070 ca         1 V4F       0.195100
      3 CAD         -9.2370   -21.3420    20.0790 ca         1 V4F      -0.270000
      4 CAE         -8.5720   -20.1650    19.6850 ca         1 V4F       0.338500
      5 CAL        -10.6720   -21.1530    18.1410 ca         1 V4F      -0.143000
      6 CAM         -9.9770   -19.9680    17.7860 ca         1 V4F       0.311000
      7 CAJ        -10.3690   -19.2730    16.6060 ca         1 V4F      -0.102300
      8 CAK        -11.4170   -19.7750    15.8070 ca         1 V4F      -0.123000
      9 CAG        -12.0920   -20.9450    16.1710 ca         1 V4F      -0.218000
     10 CAI        -11.7260   -21.6330    17.3350 ca         1 V4F      -0.007000
     11 C01        -10.6400   -23.7720    20.8430 c3         1 V4F      -0.130400
     12 CA          -9.6660   -17.9930    16.1430 c3         1 V4F       0.213100
     13 NAH         -8.9560   -19.5060    18.5490 nb         1 V4F      -0.720000
     14 N          -10.5740   -16.8280    16.1440 n8         1 V4F      -0.953200
     15 O           -7.0630   -20.2110    21.5710 o          1 V4F      -0.728000
     16 O3         -11.3140   -26.0090    22.2940 o          1 V4F      -0.930500
     17 O2         -13.1570   -24.8640    21.1800 o          1 V4F      -0.930500
     18 O1         -11.5700   -26.1880    19.8750 o          1 V4F      -0.930500
     19 P          -11.7280   -25.2850    21.0550 p5         1 V4F       1.304500
     20 HAD         -8.9170   -21.8480    20.9830 ha         1 V4F       0.155000
     21 HAK        -11.7090   -19.2540    14.8990 ha         1 V4F       0.055000
     22 HAG        -12.9010   -21.3220    15.5500 ha         1 V4F       0.076000
     23 HAI        -12.2640   -22.5410    17.6000 ha         1 V4F       0.153000
     24 H3          -9.6010   -24.1210    20.7940 h1         1 V4F       0.009700
     25 HA1         -8.7970   -17.7500    16.7670 h1         1 V4F       0.021200
     26 HA2         -9.3030   -18.1400    15.1170 h1         1 V4F       0.021200
     27 H          -10.0880   -16.0320    15.7180 hn         1 V4F       0.357500
     28 H2         -11.3500   -17.0250    15.5040 hn         1 V4F       0.357500
     29 OXT         -6.8040   -18.5880    20.2020 o          1 V4F      -0.728000
     30 H1         -10.7560   -23.1570    21.7440 h1         1 V4F       0.009700
     31 O01        -10.9700   -23.0030    19.6610 os         1 V4F      -0.278100
@<TRIPOS>BOND
     1     1     4 1   
     2     1    15 1   
     3     1    29 1   
     4     2     3 ar  
     5     2     5 ar  
     6     2    31 1   
     7     3     4 ar  
     8     3    20 1   
     9     4    13 ar  
    10     5     6 ar  
    11     5    10 ar  
    12     6     7 ar  
    13     6    13 ar  
    14     7     8 ar  
    15     7    12 1   
    16     8     9 ar  
    17     8    21 1   
    18     9    10 ar  
    19     9    22 1   
    20    10    23 1   
    21    11    19 1   
    22    11    24 1   
    23    11    30 1   
    24    11    31 1   
    25    12    14 1   
    26    12    25 1   
    27    12    26 1   
    28    14    27 1   
    29    14    28 1   
    30    16    19 1   
    31    17    19 1   
    32    18    19 1   
@<TRIPOS>SUBSTRUCTURE
     1 V4F         1 TEMP              0 ****  ****    0 ROOT
