@<TRIPOS>MOLECULE
V4H
   32    33     1     0     0
SMALL
No Charge or Current Charge


@<TRIPOS>ATOM
      1 C02        -17.7410    23.3220     2.8500 c6         1 V4H       0.152300
      2 C03        -16.4850    24.0000     3.4590 c6         1 V4H      -0.110400
      3 C04        -15.1600    23.3220     3.0080 c6         1 V4H      -0.096400
      4 C05        -15.3920    21.9230     2.3870 c6         1 V4H       0.088000
      5 C08        -16.8570    21.4730    -1.2040 ca         1 V4H      -0.116600
      6 C09        -18.1100    20.8590    -0.9840 ca         1 V4H      -0.089000
      7 C10        -19.0240    20.6970    -2.0400 ca         1 V4H      -0.067500
      8 C11        -18.6950    21.1300    -3.3400 ca         1 V4H      -0.185600
      9 C12        -17.4330    21.7160    -3.5710 ca         1 V4H      -0.067500
     10 C13        -16.5210    21.8760    -2.5130 ca         1 V4H      -0.089000
     11 C14        -19.6840    20.9500    -4.4630 c          1 V4H       0.583500
     12 C16        -17.4840    22.8990     1.3760 c6         1 V4H       0.100000
     13 N06        -16.3040    21.9870     1.2030 n          1 V4H      -0.399800
     14 O01        -18.8640    24.2070     2.9370 oh         1 V4H      -0.657000
     15 O15        -14.6610    21.3950    -0.2980 o          1 V4H      -0.589100
     16 H1         -17.9520    22.4080     3.4250 h1         1 V4H       0.033700
     17 H2         -16.4530    25.0620     3.1770 hc         1 V4H       0.052200
     18 H3         -16.5590    23.9770     4.5550 hc         1 V4H       0.052200
     19 H4         -14.4700    23.2430     3.8590 hc         1 V4H       0.052700
     20 H5         -14.6590    23.9580     2.2660 hc         1 V4H       0.052700
     21 H6         -15.8330    21.2540     3.1400 h1         1 V4H       0.062200
     22 H7         -14.4210    21.4870     2.1130 h1         1 V4H       0.062200
     23 H8         -18.3720    20.4800     0.0010 ha         1 V4H       0.128000
     24 H9         -19.9850    20.2240    -1.8460 ha         1 V4H       0.127500
     25 H10        -17.1530    22.0470    -4.5690 ha         1 V4H       0.127500
     26 H11        -15.5500    22.3270    -2.7110 ha         1 V4H       0.128000
     27 H12        -20.6500    20.4730    -4.1860 h4         1 V4H      -0.009800
     28 H15        -17.3250    23.8000     0.7670 h1         1 V4H       0.063700
     29 H16        -18.3970    22.4160     1.0080 h1         1 V4H       0.063700
     30 H17        -19.0040    24.3950     3.8910 ho         1 V4H       0.448000
     31 O1         -19.4650    21.2970    -5.6190 o          1 V4H      -0.511100
     32 C07        -15.8450    21.6360    -0.0910 c          1 V4H       0.612700
@<TRIPOS>BOND
     1     1     2 1   
     2     1    12 1   
     3     1    14 1   
     4     1    16 1   
     5     2     3 1   
     6     2    17 1   
     7     2    18 1   
     8     3     4 1   
     9     3    19 1   
    10     3    20 1   
    11     4    13 1   
    12     4    21 1   
    13     4    22 1   
    14     5     6 ar  
    15     5    10 ar  
    16     5    32 1   
    17     6     7 ar  
    18     6    23 1   
    19     7     8 ar  
    20     7    24 1   
    21     8     9 ar  
    22     8    11 1   
    23     9    10 ar  
    24     9    25 1   
    25    10    26 1   
    26    11    27 1   
    27    11    31 2   
    28    12    13 1   
    29    12    28 1   
    30    12    29 1   
    31    13    32 1   
    32    14    30 1   
    33    15    32 2   
@<TRIPOS>SUBSTRUCTURE
     1 V4H         1 TEMP              0 ****  ****    0 ROOT
