@<TRIPOS>MOLECULE
V4H
   32    33     1     0     0
SMALL
abcg2


@<TRIPOS>ATOM
      1 C02        -17.6450    23.3550     2.7540 c6         1 V4H       0.152300
      2 C03        -16.3390    24.1210     2.5900 c6         1 V4H      -0.110400
      3 C04        -15.1500    23.2000     2.8920 c6         1 V4H      -0.096400
      4 C05        -15.4760    21.7560     2.4930 c6         1 V4H       0.088000
      5 C08        -16.9190    21.5490    -1.0020 ca         1 V4H      -0.116600
      6 C09        -18.0000    20.6730    -0.9740 ca         1 V4H      -0.089000
      7 C10        -18.8400    20.5770    -2.0710 ca         1 V4H      -0.067500
      8 C11        -18.6150    21.3620    -3.1980 ca         1 V4H      -0.185600
      9 C12        -17.5310    22.2390    -3.2270 ca         1 V4H      -0.067500
     10 C13        -16.6810    22.3190    -2.1410 ca         1 V4H      -0.089000
     11 C14        -19.5320    21.2430    -4.3450 c          1 V4H       0.583500
     12 C16        -17.7290    22.2430     1.6970 c6         1 V4H       0.100000
     13 N06        -16.4000    21.7420     1.3710 n          1 V4H      -0.399800
     14 O01        -18.7940    24.1480     2.5690 oh         1 V4H      -0.657000
     15 O15        -14.7360    21.4770    -0.1410 o          1 V4H      -0.589100
     16 H1         -17.6550    22.9030     3.7560 h1         1 V4H       0.033700
     17 H2         -16.2770    24.5040     1.5670 hc         1 V4H       0.052200
     18 H3         -16.3240    24.9910     3.2520 hc         1 V4H       0.052200
     19 H4         -14.9070    23.2230     3.9560 hc         1 V4H       0.052700
     20 H5         -14.2660    23.5480     2.3570 hc         1 V4H       0.052700
     21 H6         -15.9560    21.2270     3.3190 h1         1 V4H       0.062200
     22 H7         -14.5800    21.1980     2.2380 h1         1 V4H       0.062200
     23 H8         -18.1840    20.0570    -0.1030 ha         1 V4H       0.128000
     24 H9         -19.6770    19.8890    -2.0510 ha         1 V4H       0.127500
     25 H10        -17.3500    22.8520    -4.1000 ha         1 V4H       0.127500
     26 H11        -15.8320    22.9900    -2.1700 ha         1 V4H       0.128000
     27 H12        -20.3500    20.5140    -4.2030 h4         1 V4H      -0.009800
     28 H15        -18.1840    22.6700     0.8040 h1         1 V4H       0.063700
     29 H16        -18.3730    21.4300     2.0470 h1         1 V4H       0.063700
     30 H17        -18.8550    24.7670     3.3030 ho         1 V4H       0.448000
     31 O1         -19.4270    21.8720    -5.3700 o          1 V4H      -0.511100
     32 C07        -15.9250    21.6010     0.1180 c          1 V4H       0.612700
@<TRIPOS>BOND
     1     1     2 1   
     2     1    12 1   
     3     1    14 1   
     4     1    16 1   
     5     2     3 1   
     6     2    17 1   
     7     2    18 1   
     8     3     4 1   
     9     3    19 1   
    10     3    20 1   
    11     4    13 1   
    12     4    21 1   
    13     4    22 1   
    14     5     6 ar  
    15     5    10 ar  
    16     5    32 1   
    17     6     7 ar  
    18     6    23 1   
    19     7     8 ar  
    20     7    24 1   
    21     8     9 ar  
    22     8    11 1   
    23     9    10 ar  
    24     9    25 1   
    25    10    26 1   
    26    11    27 1   
    27    11    31 2   
    28    12    13 1   
    29    12    28 1   
    30    12    29 1   
    31    13    32 1   
    32    14    30 1   
    33    15    32 2   
@<TRIPOS>SUBSTRUCTURE
     1 V4H         1 TEMP              0 ****  ****    0 ROOT
