@<TRIPOS>MOLECULE
V4I
   48    51     1     0     0
SMALL
No Charge or Current Charge


@<TRIPOS>ATOM
      1 O1          -2.1000    -7.9360    44.8110 o          1 V4I      -0.575100
      2 C1          -1.5480    -8.5330    45.7230 c          1 V4I       0.609100
      3 N1          -1.9990    -9.7280    46.2300 ns         1 V4I      -0.470400
      4 C2          -3.0940   -10.4700    45.8610 cc         1 V4I       0.535300
      5 N2          -3.3400   -11.5990    46.5080 nd         1 V4I      -0.382000
      6 N3          -4.4700   -12.2350    46.0270 nd         1 V4I      -0.416000
      7 C3          -5.0230   -11.5540    45.0390 cc         1 V4I       0.627300
      8 N4          -6.1530   -11.9840    44.4000 nu         1 V4I      -0.924100
      9 C4          -6.8470   -13.2760    44.6950 c5         1 V4I       0.228500
     10 C5          -6.3020   -14.2690    43.6330 c5         1 V4I      -0.113400
     11 C6          -6.9620   -13.7980    42.3050 c5         1 V4I       0.239800
     12 N5          -8.2780   -13.2690    42.7600 nh         1 V4I      -0.799300
     13 C7          -9.3370   -12.9420    41.8860 ca         1 V4I       0.575900
     14 C8         -10.6050   -12.5310    42.3450 ca         1 V4I      -0.176000
     15 C9         -11.5960   -12.2260    41.3900 ca         1 V4I      -0.080000
     16 C10        -11.2630   -12.3500    40.0280 ca         1 V4I       0.211900
     17 N6         -10.0300   -12.7500    39.6360 nb         1 V4I      -0.284000
     18 N7          -9.0820   -13.0420    40.5550 nb         1 V4I      -0.426000
     19 C11         -8.3390   -13.1050    44.2450 c5         1 V4I       0.220800
     20 S1          -4.2320   -10.0860    44.5990 ss         1 V4I      -0.235800
     21 C12         -0.2900    -7.9820    46.4100 c3         1 V4I      -0.085100
     22 C13         -0.6510    -6.9100    47.4370 ca         1 V4I      -0.144300
     23 C14         -0.7400    -5.5570    47.0520 ca         1 V4I      -0.068000
     24 C15         -1.0790    -4.5540    47.9910 ca         1 V4I      -0.127600
     25 C16         -1.1720    -3.0950    47.5710 c          1 V4I       0.705600
     26 O2          -1.4880    -2.2630    48.4090 o          1 V4I      -0.716500
     27 O3          -0.9270    -2.8030    46.4080 o          1 V4I      -0.716500
     28 C17         -1.3290    -4.9380    49.3290 ca         1 V4I      -0.074000
     29 C18         -1.2430    -6.2860    49.7140 ca         1 V4I      -0.143000
     30 C19         -0.9050    -7.2700    48.7720 ca         1 V4I      -0.133000
     31 H1          -1.4510   -10.1010    46.9900 hn         1 V4I       0.346500
     32 H2          -6.4680   -11.3870    43.6390 hn         1 V4I       0.496000
     33 H3          -6.7430   -13.6220    45.7340 h1         1 V4I       0.074700
     34 H4          -6.6230   -15.2890    43.8730 hc         1 V4I       0.058700
     35 H5          -5.2080   -14.2870    43.5760 hc         1 V4I       0.058700
     36 H6          -7.0650   -14.6330    41.5980 h1         1 V4I       0.059200
     37 H7          -6.3670   -13.0110    41.8200 h1         1 V4I       0.059200
     38 H8         -10.8230   -12.4530    43.4040 ha         1 V4I       0.131000
     39 H9         -12.5900   -11.9050    41.6890 ha         1 V4I       0.125000
     40 H10        -11.9860   -12.1290    39.2440 h4         1 V4I       0.023100
     41 H11         -8.7390   -12.1280    44.5510 h1         1 V4I       0.066200
     42 H12         -8.9670   -13.8860    44.6960 h1         1 V4I       0.066200
     43 H13          0.2420    -8.7950    46.9190 hc         1 V4I       0.065200
     44 H14          0.3650    -7.5500    45.6440 hc         1 V4I       0.065200
     45 H15         -0.5480    -5.2860    46.0160 ha         1 V4I       0.139000
     46 H17         -1.5920    -4.1920    50.0760 ha         1 V4I       0.132000
     47 H18         -1.4380    -6.5680    50.7460 ha         1 V4I       0.090000
     48 H19         -0.8420    -8.3100    49.0840 ha         1 V4I       0.078000
@<TRIPOS>BOND
     1     1     2 2   
     2     2     3 1   
     3     2    21 1   
     4     3     4 1   
     5     3    31 1   
     6     4     5 2   
     7     4    20 1   
     8     5     6 1   
     9     6     7 2   
    10     7     8 1   
    11     7    20 1   
    12     8     9 1   
    13     8    32 1   
    14     9    10 1   
    15     9    19 1   
    16     9    33 1   
    17    10    11 1   
    18    10    34 1   
    19    10    35 1   
    20    11    12 1   
    21    11    36 1   
    22    11    37 1   
    23    12    13 1   
    24    12    19 1   
    25    13    14 ar  
    26    13    18 ar  
    27    14    15 ar  
    28    14    38 1   
    29    15    16 ar  
    30    15    39 1   
    31    16    17 ar  
    32    16    40 1   
    33    17    18 ar  
    34    19    41 1   
    35    19    42 1   
    36    21    22 1   
    37    21    43 1   
    38    21    44 1   
    39    22    23 ar  
    40    22    30 ar  
    41    23    24 ar  
    42    23    45 1   
    43    24    25 1   
    44    24    28 ar  
    45    25    26 1   
    46    25    27 1   
    47    28    29 ar  
    48    28    46 1   
    49    29    30 ar  
    50    29    47 1   
    51    30    48 1   
@<TRIPOS>SUBSTRUCTURE
     1 V4I         1 TEMP              0 ****  ****    0 ROOT
