@<TRIPOS>MOLECULE
V4I
   48    51     1     0     0
SMALL
abcg2


@<TRIPOS>ATOM
      1 O1          -1.0200    -9.2840    45.0220 o          1 V4I      -0.575100
      2 C1          -1.2320    -9.2430    46.2270 c          1 V4I       0.609100
      3 N1          -2.2150    -9.9930    46.8080 ns         1 V4I      -0.470400
      4 C2          -3.0730   -10.8430    46.1400 cc         1 V4I       0.535300
      5 N2          -3.9990   -11.5000    46.7580 nd         1 V4I      -0.382000
      6 N3          -4.7350   -12.3130    45.9210 nd         1 V4I      -0.416000
      7 C3          -4.3380   -12.2390    44.6780 cc         1 V4I       0.627300
      8 N4          -4.9060   -12.9140    43.6530 nu         1 V4I      -0.924100
      9 C4          -5.9520   -13.9050    43.8910 c5         1 V4I       0.228500
     10 C5          -6.2250   -14.6860    42.6050 c5         1 V4I      -0.113400
     11 C6          -7.1360   -13.7630    41.7930 c5         1 V4I       0.239800
     12 N5          -7.8450   -13.0060    42.8250 nh         1 V4I      -0.799300
     13 C7          -8.8320   -12.1290    42.5450 ca         1 V4I       0.575900
     14 C8          -9.5280   -11.4320    43.5660 ca         1 V4I      -0.176000
     15 C9         -10.5010   -10.5550    43.1790 ca         1 V4I      -0.080000
     16 C10        -10.7540   -10.4080    41.8080 ca         1 V4I       0.211900
     17 N6         -10.0910   -11.0920    40.8920 nb         1 V4I      -0.284000
     18 N7          -9.1350   -11.9480    41.2430 nb         1 V4I      -0.426000
     19 C11         -7.2990   -13.2260    44.1630 c5         1 V4I       0.220800
     20 S1          -2.9910   -11.1320    44.4200 ss         1 V4I      -0.235800
     21 C12         -0.4640    -8.3480    47.1800 c3         1 V4I      -0.085100
     22 C13         -1.2920    -7.1470    47.5880 ca         1 V4I      -0.144300
     23 C14         -1.5020    -6.1030    46.6880 ca         1 V4I      -0.068000
     24 C15         -2.2780    -4.9970    47.0290 ca         1 V4I      -0.127600
     25 C16         -2.4900    -3.8590    46.0290 c          1 V4I       0.705600
     26 O2          -3.1880    -2.8870    46.4150 o          1 V4I      -0.716500
     27 O3          -1.9500    -3.9850    44.9010 o          1 V4I      -0.716500
     28 C17         -2.8530    -4.9460    48.3000 ca         1 V4I      -0.074000
     29 C18         -2.6510    -5.9790    49.2070 ca         1 V4I      -0.143000
     30 C19         -1.8720    -7.0770    48.8530 ca         1 V4I      -0.133000
     31 H1          -2.3570    -9.9340    47.8080 hn         1 V4I       0.346500
     32 H2          -4.3740   -12.9990    42.8000 hn         1 V4I       0.496000
     33 H3          -5.6670   -14.5530    44.7210 h1         1 V4I       0.074700
     34 H4          -6.7530   -15.6040    42.8640 hc         1 V4I       0.058700
     35 H5          -5.3130   -14.9550    42.0740 hc         1 V4I       0.058700
     36 H6          -7.8350   -14.3120    41.1620 h1         1 V4I       0.059200
     37 H7          -6.5660   -13.0900    41.1460 h1         1 V4I       0.059200
     38 H8          -9.3010   -11.5970    44.6090 ha         1 V4I       0.131000
     39 H9         -11.0690    -9.9900    43.9070 ha         1 V4I       0.125000
     40 H10        -11.5130    -9.7290    41.4400 h4         1 V4I       0.023100
     41 H11         -7.1710   -12.2900    44.7030 h1         1 V4I       0.066200
     42 H12         -7.9440   -13.8830    44.7570 h1         1 V4I       0.066200
     43 H13         -0.1790    -8.9230    48.0630 hc         1 V4I       0.065200
     44 H14          0.4400    -8.0370    46.6600 hc         1 V4I       0.065200
     45 H15         -1.0560    -6.1390    45.7030 ha         1 V4I       0.139000
     46 H17         -3.4530    -4.0880    48.5670 ha         1 V4I       0.132000
     47 H18         -3.0950    -5.9310    50.1940 ha         1 V4I       0.090000
     48 H19         -1.7110    -7.8800    49.5630 ha         1 V4I       0.078000
@<TRIPOS>BOND
     1     1     2 2   
     2     2     3 1   
     3     2    21 1   
     4     3     4 1   
     5     3    31 1   
     6     4     5 2   
     7     4    20 1   
     8     5     6 1   
     9     6     7 2   
    10     7     8 1   
    11     7    20 1   
    12     8     9 1   
    13     8    32 1   
    14     9    10 1   
    15     9    19 1   
    16     9    33 1   
    17    10    11 1   
    18    10    34 1   
    19    10    35 1   
    20    11    12 1   
    21    11    36 1   
    22    11    37 1   
    23    12    13 1   
    24    12    19 1   
    25    13    14 ar  
    26    13    18 ar  
    27    14    15 ar  
    28    14    38 1   
    29    15    16 ar  
    30    15    39 1   
    31    16    17 ar  
    32    16    40 1   
    33    17    18 ar  
    34    19    41 1   
    35    19    42 1   
    36    21    22 1   
    37    21    43 1   
    38    21    44 1   
    39    22    23 ar  
    40    22    30 ar  
    41    23    24 ar  
    42    23    45 1   
    43    24    25 1   
    44    24    28 ar  
    45    25    26 1   
    46    25    27 1   
    47    28    29 ar  
    48    28    46 1   
    49    29    30 ar  
    50    29    47 1   
    51    30    48 1   
@<TRIPOS>SUBSTRUCTURE
     1 V4I         1 TEMP              0 ****  ****    0 ROOT
