@<TRIPOS>MOLECULE
V4J
   58    59     1     0     0
SMALL
No Charge or Current Charge


@<TRIPOS>ATOM
      1 C16          3.2810    13.1600     8.3990 c3         1 V4J      -0.077400
      2 C3          -4.3030    15.3150     7.8990 c3         1 V4J      -0.074400
      3 C20          6.9130    16.1550     7.7450 c5         1 V4J       0.100700
      4 C21          7.3310    14.5940     6.0370 c          1 V4J       0.610000
      5 C22         -3.2290    12.7740     9.5680 c3         1 V4J      -0.097400
      6 C23          5.9730    14.8930     7.9350 c5         1 V4J       0.094700
      7 S1           4.5770    16.6490     6.3820 ss         1 V4J      -0.399000
      8 C15         -2.7250    14.2300     9.6990 c3         1 V4J      -0.110400
      9 C14         -4.7970    14.2390     6.9050 c3         1 V4J      -0.089100
     10 O14         -0.6840    10.8980     8.8190 os         1 V4J      -0.461100
     11 C13         -0.1310    11.3370     7.6450 c          1 V4J       0.596100
     12 C12         -1.6390     9.8180     8.7610 c3         1 V4J       0.130600
     13 C10         -2.2190     9.5680    10.1780 c3         1 V4J       0.163600
     14 C9           2.2820    12.0430     8.0140 c3         1 V4J      -0.069400
     15 C7          -2.8260    11.8900    10.7700 c3         1 V4J       0.165600
     16 C1          -2.8550    15.1090     8.4250 c3         1 V4J       0.173300
     17 C17          3.4510    14.2670     7.3290 c3         1 V4J      -0.067400
     18 C18          4.4880    15.3580     7.7020 c5         1 V4J       0.072300
     19 C19          6.0370    17.3630     7.2700 c5         1 V4J       0.029600
     20 N4           7.7040    15.7800     6.5700 ns         1 V4J      -0.520900
     21 N5           6.3540    14.0490     6.7960 ns         1 V4J      -0.508900
     22 O15         -0.3580    10.8500     6.5470 o          1 V4J      -0.479000
     23 O5          -2.2970    16.3910     8.7240 oh         1 V4J      -0.661000
     24 O8          -3.2510    10.5330    10.5190 os         1 V4J      -0.458000
     25 H1           4.2560    12.6930     8.5880 hc         1 V4J       0.038700
     26 H2           2.9670    13.6160     9.3460 hc         1 V4J       0.038700
     27 H4          -4.3580    16.2800     7.3800 hc         1 V4J       0.054700
     28 H5           7.5300    16.3840     8.6250 h1         1 V4J       0.070700
     29 H6          -4.3230    12.7730     9.5000 hc         1 V4J       0.050700
     30 H7          -2.8460    12.3460     8.6360 hc         1 V4J       0.050700
     31 H8           6.1200    14.3900     8.9000 h1         1 V4J       0.060700
     32 H9          -1.6660    14.1990     9.9830 hc         1 V4J       0.043200
     33 H10         -3.2550    14.7130    10.5300 hc         1 V4J       0.043200
     34 H11         -5.7920    14.5040     6.5270 hc         1 V4J       0.034367
     35 H12         -4.1180    14.1670     6.0470 hc         1 V4J       0.034367
     36 H13         -4.8700    13.2510     7.3680 hc         1 V4J       0.034367
     37 H14         -2.4610    10.0460     8.0690 h1         1 V4J       0.058200
     38 H15         -1.1490     8.9000     8.4120 h1         1 V4J       0.058200
     39 H18         -1.4070     9.5770    10.9180 h1         1 V4J       0.053700
     40 H19         -2.6520     8.5590    10.1880 h1         1 V4J       0.053700
     41 H20          2.3270    11.2620     8.7840 hc         1 V4J       0.060200
     42 H21          2.6050    11.5730     7.0760 hc         1 V4J       0.060200
     43 H22         -1.7430    11.9480    10.9420 h1         1 V4J       0.039200
     44 H23         -3.3230    12.2760    11.6700 h1         1 V4J       0.039200
     45 H24         -2.2640    14.6440     7.6240 h1         1 V4J       0.025700
     46 H25          2.4820    14.7550     7.1700 hc         1 V4J       0.060700
     47 H26          3.7140    13.8040     6.3700 hc         1 V4J       0.060700
     48 H27          4.1270    15.8520     8.6150 h1         1 V4J       0.073700
     49 H28          6.5880    18.0600     6.6250 h1         1 V4J       0.078700
     50 H29          5.6730    17.9310     8.1360 h1         1 V4J       0.078700
     51 H30          8.4300    16.3230     6.1200 hn         1 V4J       0.339500
     52 H31          5.9620    13.1530     6.5390 hn         1 V4J       0.334500
     53 H32         -1.3650    16.2420     8.9920 ho         1 V4J       0.433000
     54 O22          7.8120    14.0880     5.0420 o          1 V4J      -0.574000
     55 C11          0.8140    12.5180     7.8740 c3         1 V4J      -0.142400
     56 H3          -4.9980    15.3840     8.7450 hc         1 V4J       0.054700
     57 H16          0.5380    13.0180     8.8100 hc         1 V4J       0.067700
     58 H17          0.7290    13.2070     7.0270 hc         1 V4J       0.067700
@<TRIPOS>BOND
     1     1    14 1   
     2     1    17 1   
     3     1    25 1   
     4     1    26 1   
     5     2     9 1   
     6     2    16 1   
     7     2    27 1   
     8     2    56 1   
     9     3     6 1   
    10     3    19 1   
    11     3    20 1   
    12     3    28 1   
    13     4    20 1   
    14     4    21 1   
    15     4    54 2   
    16     5     8 1   
    17     5    15 1   
    18     5    29 1   
    19     5    30 1   
    20     6    18 1   
    21     6    21 1   
    22     6    31 1   
    23     7    18 1   
    24     7    19 1   
    25     8    16 1   
    26     8    32 1   
    27     8    33 1   
    28     9    34 1   
    29     9    35 1   
    30     9    36 1   
    31    10    11 1   
    32    10    12 1   
    33    11    22 2   
    34    11    55 1   
    35    12    13 1   
    36    12    37 1   
    37    12    38 1   
    38    13    24 1   
    39    13    39 1   
    40    13    40 1   
    41    14    41 1   
    42    14    42 1   
    43    14    55 1   
    44    15    24 1   
    45    15    43 1   
    46    15    44 1   
    47    16    23 1   
    48    16    45 1   
    49    17    18 1   
    50    17    46 1   
    51    17    47 1   
    52    18    48 1   
    53    19    49 1   
    54    19    50 1   
    55    20    51 1   
    56    21    52 1   
    57    23    53 1   
    58    55    57 1   
    59    55    58 1   
@<TRIPOS>SUBSTRUCTURE
     1 V4J         1 TEMP              0 ****  ****    0 ROOT
