@<TRIPOS>MOLECULE
V4J
   58    59     1     0     0
SMALL
abcg2


@<TRIPOS>ATOM
      1 C16          3.2550    12.7500     8.6310 c3         1 V4J      -0.077400
      2 C3          -1.6390    16.1350     7.9240 c3         1 V4J      -0.074400
      3 C20          5.1960    16.7150     7.2060 c5         1 V4J       0.100700
      4 C21          6.0810    15.2860     5.5720 c          1 V4J       0.610000
      5 C22         -2.5510    12.9270     8.8420 c3         1 V4J      -0.097400
      6 C23          4.8490    15.2400     7.5650 c5         1 V4J       0.094700
      7 S1           2.6630    16.2570     6.4490 ss         1 V4J      -0.399000
      8 C15         -1.8980    14.1330     9.5140 c3         1 V4J      -0.110400
      9 C14         -2.8190    15.7680     7.0370 c3         1 V4J      -0.089100
     10 O14         -0.8300    10.2220     9.3890 os         1 V4J      -0.461100
     11 C13          0.3270    10.2000     8.7340 c          1 V4J       0.596100
     12 C12         -1.8420     9.2760     9.0400 c3         1 V4J       0.130600
     13 C10         -3.1200     9.6510     9.7590 c3         1 V4J       0.163600
     14 C9           2.5770    11.3830     8.5390 c3         1 V4J      -0.069400
     15 C7          -3.2600    12.0490     9.8640 c3         1 V4J       0.165600
     16 C1          -0.9670    14.9490     8.6020 c3         1 V4J       0.173300
     17 C17          2.7660    13.7160     7.5530 c3         1 V4J      -0.067400
     18 C18          3.3270    15.1180     7.7090 c5         1 V4J       0.072300
     19 C19          3.8960    17.4870     6.9450 c5         1 V4J       0.029600
     20 N4           6.0220    16.5610     6.0370 ns         1 V4J      -0.520900
     21 N5           5.3650    14.5100     6.4350 ns         1 V4J      -0.508900
     22 O15          0.6370     9.3300     7.9600 o          1 V4J      -0.479000
     23 O5           0.1230    15.4880     9.3350 oh         1 V4J      -0.661000
     24 O8          -3.7240    10.8340     9.3030 os         1 V4J      -0.458000
     25 H1           4.3360    12.6130     8.5400 hc         1 V4J       0.038700
     26 H2           3.0860    13.1820     9.6230 hc         1 V4J       0.038700
     27 H4          -0.8850    16.6540     7.3250 hc         1 V4J       0.054700
     28 H5           5.7480    17.2060     8.0100 h1         1 V4J       0.070700
     29 H6          -3.2600    13.2380     8.0720 hc         1 V4J       0.050700
     30 H7          -1.7810    12.3410     8.3360 hc         1 V4J       0.050700
     31 H8           5.3350    14.9300     8.4950 h1         1 V4J       0.060700
     32 H9          -1.3040    13.7570    10.3540 hc         1 V4J       0.043200
     33 H10         -2.6590    14.7870     9.9550 hc         1 V4J       0.043200
     34 H11         -3.1800    16.6460     6.5000 hc         1 V4J       0.034367
     35 H12         -2.5460    15.0190     6.2910 hc         1 V4J       0.034367
     36 H13         -3.6570    15.3750     7.6120 hc         1 V4J       0.034367
     37 H14         -1.9970     9.2690     7.9580 h1         1 V4J       0.058200
     38 H15         -1.5420     8.2700     9.3460 h1         1 V4J       0.058200
     39 H18         -2.9390     9.6830    10.8410 h1         1 V4J       0.053700
     40 H19         -3.8300     8.8390     9.5820 h1         1 V4J       0.053700
     41 H20          3.1480    10.6500     9.1140 hc         1 V4J       0.060200
     42 H21          2.5960    11.0430     7.5010 hc         1 V4J       0.060200
     43 H22         -2.5920    11.8570    10.7110 h1         1 V4J       0.039200
     44 H23         -4.1250    12.5890    10.2660 h1         1 V4J       0.039200
     45 H24         -0.5870    14.2780     7.8140 h1         1 V4J       0.025700
     46 H25          1.6760    13.7830     7.5790 hc         1 V4J       0.060700
     47 H26          3.0230    13.3240     6.5650 hc         1 V4J       0.060700
     48 H27          3.0470    15.5130     8.6920 h1         1 V4J       0.073700
     49 H28          4.0180    18.2390     6.1660 h1         1 V4J       0.078700
     50 H29          3.5660    17.9900     7.8550 h1         1 V4J       0.078700
     51 H30          6.2950    17.3410     5.4630 hn         1 V4J       0.339500
     52 H31          5.5400    13.5200     6.4800 hn         1 V4J       0.334500
     53 H32          0.6070    14.7580     9.7350 ho         1 V4J       0.433000
     54 O22          6.6700    14.9040     4.5740 o          1 V4J      -0.574000
     55 C11          1.1470    11.4200     9.0560 c3         1 V4J      -0.142400
     56 H3          -1.9680    16.8390     8.6950 hc         1 V4J       0.054700
     57 H16          1.1340    11.5880    10.1360 hc         1 V4J       0.067700
     58 H17          0.6040    12.2700     8.6280 hc         1 V4J       0.067700
@<TRIPOS>BOND
     1     1    14 1   
     2     1    17 1   
     3     1    25 1   
     4     1    26 1   
     5     2     9 1   
     6     2    16 1   
     7     2    27 1   
     8     2    56 1   
     9     3     6 1   
    10     3    19 1   
    11     3    20 1   
    12     3    28 1   
    13     4    20 1   
    14     4    21 1   
    15     4    54 2   
    16     5     8 1   
    17     5    15 1   
    18     5    29 1   
    19     5    30 1   
    20     6    18 1   
    21     6    21 1   
    22     6    31 1   
    23     7    18 1   
    24     7    19 1   
    25     8    16 1   
    26     8    32 1   
    27     8    33 1   
    28     9    34 1   
    29     9    35 1   
    30     9    36 1   
    31    10    11 1   
    32    10    12 1   
    33    11    22 2   
    34    11    55 1   
    35    12    13 1   
    36    12    37 1   
    37    12    38 1   
    38    13    24 1   
    39    13    39 1   
    40    13    40 1   
    41    14    41 1   
    42    14    42 1   
    43    14    55 1   
    44    15    24 1   
    45    15    43 1   
    46    15    44 1   
    47    16    23 1   
    48    16    45 1   
    49    17    18 1   
    50    17    46 1   
    51    17    47 1   
    52    18    48 1   
    53    19    49 1   
    54    19    50 1   
    55    20    51 1   
    56    21    52 1   
    57    23    53 1   
    58    55    57 1   
    59    55    58 1   
@<TRIPOS>SUBSTRUCTURE
     1 V4J         1 TEMP              0 ****  ****    0 ROOT
