@<TRIPOS>MOLECULE
V4K
   38    39     1     0     0
SMALL
abcg2


@<TRIPOS>ATOM
      1 C02         17.8980    15.8320    -1.8870 c3         1 V4K       0.163600
      2 C03         16.4530    16.2930    -1.9150 c3         1 V4K      -0.071400
      3 C04         16.1800    17.5930    -1.1640 c6         1 V4K      -0.054700
      4 C05         16.6020    17.5180     0.3120 c6         1 V4K      -0.089400
      5 C06         15.7560    18.4500     1.1790 c6         1 V4K       0.103000
      6 C09         16.6520    21.1430     1.8670 ca         1 V4K      -0.111600
      7 C10         17.9630    20.7090     1.6970 ca         1 V4K      -0.092500
      8 C11         18.9270    21.0420     2.6340 ca         1 V4K      -0.067500
      9 C12         18.5880    21.7980     3.7520 ca         1 V4K      -0.188600
     10 C13         17.2730    22.2330     3.9210 ca         1 V4K      -0.067500
     11 C14         16.3170    21.9200     2.9750 ca         1 V4K      -0.092500
     12 C15         19.6350    22.1280     4.7320 c          1 V4K       0.582500
     13 C17         14.4960    19.3980    -0.7050 c6         1 V4K       0.103000
     14 C18         14.7070    17.9830    -1.2410 c6         1 V4K      -0.089400
     15 N07         15.3680    19.6400     0.4400 n          1 V4K      -0.404800
     16 O01         18.7140    16.8230    -2.4770 oh         1 V4K      -0.661000
     17 O16         15.0680    21.8710     0.2930 o          1 V4K      -0.594100
     18 H1          17.9740    14.8790    -2.4270 h1         1 V4K       0.016700
     19 H2          18.2010    15.6280    -0.8520 h1         1 V4K       0.016700
     20 H3          16.1280    16.3990    -2.9550 hc         1 V4K       0.047200
     21 H4          15.8420    15.4930    -1.4830 hc         1 V4K       0.047200
     22 H5          16.7540    18.3940    -1.6440 hc         1 V4K       0.071700
     23 H6          16.4790    16.4990     0.6900 hc         1 V4K       0.045950
     24 H7          17.6620    17.7630     0.4140 hc         1 V4K       0.045950
     25 H8          16.2760    18.7270     2.0920 h1         1 V4K       0.052950
     26 H9          14.8410    17.9400     1.4940 h1         1 V4K       0.052950
     27 H10         18.2360    20.1220     0.8290 ha         1 V4K       0.129000
     28 H11         19.9500    20.7120     2.4960 ha         1 V4K       0.126500
     29 H12         17.0030    22.8230     4.7880 ha         1 V4K       0.126500
     30 H13         15.3000    22.2700     3.1010 ha         1 V4K       0.129000
     31 H14         20.6380    21.7380     4.4810 h4         1 V4K      -0.010800
     32 H17         14.7440    20.1200    -1.4830 h1         1 V4K       0.052950
     33 H18         13.4490    19.5610    -0.4330 h1         1 V4K       0.052950
     34 H19         14.3490    17.9510    -2.2720 hc         1 V4K       0.045950
     35 H20         14.1020    17.2580    -0.6860 hc         1 V4K       0.045950
     36 H21         19.6300    16.5440    -2.3970 ho         1 V4K       0.441000
     37 O1          19.4520    22.7710     5.7390 o          1 V4K      -0.512100
     38 C08         15.6190    20.9050     0.8080 c          1 V4K       0.609700
@<TRIPOS>BOND
     1     1     2 1   
     2     1    16 1   
     3     1    18 1   
     4     1    19 1   
     5     2     3 1   
     6     2    20 1   
     7     2    21 1   
     8     3     4 1   
     9     3    14 1   
    10     3    22 1   
    11     4     5 1   
    12     4    23 1   
    13     4    24 1   
    14     5    15 1   
    15     5    25 1   
    16     5    26 1   
    17     6     7 ar  
    18     6    11 ar  
    19     6    38 1   
    20     7     8 ar  
    21     7    27 1   
    22     8     9 ar  
    23     8    28 1   
    24     9    10 ar  
    25     9    12 1   
    26    10    11 ar  
    27    10    29 1   
    28    11    30 1   
    29    12    31 1   
    30    12    37 2   
    31    13    14 1   
    32    13    15 1   
    33    13    32 1   
    34    13    33 1   
    35    14    34 1   
    36    14    35 1   
    37    15    38 1   
    38    16    36 1   
    39    17    38 2   
@<TRIPOS>SUBSTRUCTURE
     1 V4K         1 TEMP              0 ****  ****    0 ROOT
