@<TRIPOS>MOLECULE
V4K
   38    39     1     0     0
SMALL
No Charge or Current Charge


@<TRIPOS>ATOM
      1 C02         17.8620    15.6130    -2.0660 c3         1 V4K       0.163600
      2 C03         16.4170    16.1620    -2.0510 c3         1 V4K      -0.071400
      3 C04         16.2020    17.4970    -1.2710 c6         1 V4K      -0.054700
      4 C05         16.5920    17.3800     0.2320 c6         1 V4K      -0.089400
      5 C06         15.8800    18.4230     1.1370 c6         1 V4K       0.103000
      6 C09         16.5550    21.2600     2.0630 ca         1 V4K      -0.111600
      7 C10         17.8680    20.7570     1.9160 ca         1 V4K      -0.092500
      8 C11         18.8790    21.1130     2.8260 ca         1 V4K      -0.067500
      9 C12         18.6020    21.9910     3.8920 ca         1 V4K      -0.188600
     10 C13         17.3000    22.5160     4.0290 ca         1 V4K      -0.067500
     11 C14         16.2910    22.1600     3.1180 ca         1 V4K      -0.092500
     12 C15         19.6960    22.3640     4.8590 c          1 V4K       0.582500
     13 C17         14.6200    19.4300    -0.7680 c6         1 V4K       0.103000
     14 C18         14.7490    18.0120    -1.3890 c6         1 V4K      -0.089400
     15 N07         15.5050    19.6690     0.4110 n          1 V4K      -0.404800
     16 O01         18.7340    16.5160    -2.7570 oh         1 V4K      -0.661000
     17 O16         14.5880    21.7360     0.8000 o          1 V4K      -0.594100
     18 H1          17.8630    14.6360    -2.5680 h1         1 V4K       0.016700
     19 H2          18.2090    15.4570    -1.0370 h1         1 V4K       0.016700
     20 H3          16.0910    16.2880    -3.0910 hc         1 V4K       0.047200
     21 H4          15.7670    15.3860    -1.6280 hc         1 V4K       0.047200
     22 H5          16.8580    18.2430    -1.7430 hc         1 V4K       0.071700
     23 H6          16.3660    16.3750     0.6140 hc         1 V4K       0.045950
     24 H7          17.6790    17.5040     0.3270 hc         1 V4K       0.045950
     25 H8          16.4910    18.6260     2.0260 h1         1 V4K       0.052950
     26 H9          14.9490    17.9710     1.5110 h1         1 V4K       0.052950
     27 H10         18.1170    20.1000     1.0860 ha         1 V4K       0.129000
     28 H11         19.8810    20.7090     2.6940 ha         1 V4K       0.126500
     29 H12         17.0670    23.2040     4.8400 ha         1 V4K       0.126500
     30 H13         15.2940    22.5790     3.2400 ha         1 V4K       0.129000
     31 H14         20.6910    21.9030     4.6680 h4         1 V4K      -0.010800
     32 H17         14.8840    20.1690    -1.5390 h1         1 V4K       0.052950
     33 H18         13.5710    19.6120    -0.4930 h1         1 V4K       0.052950
     34 H19         14.4270    18.0420    -2.4390 hc         1 V4K       0.045950
     35 H20         14.0680    17.3190    -0.8750 hc         1 V4K       0.045950
     36 H21         19.6290    16.1120    -2.7470 ho         1 V4K       0.441000
     37 O1          19.5300    23.1240     5.8070 o          1 V4K      -0.512100
     38 C08         15.4520    20.9130     1.0810 c          1 V4K       0.609700
@<TRIPOS>BOND
     1     1     2 1   
     2     1    16 1   
     3     1    18 1   
     4     1    19 1   
     5     2     3 1   
     6     2    20 1   
     7     2    21 1   
     8     3     4 1   
     9     3    14 1   
    10     3    22 1   
    11     4     5 1   
    12     4    23 1   
    13     4    24 1   
    14     5    15 1   
    15     5    25 1   
    16     5    26 1   
    17     6     7 ar  
    18     6    11 ar  
    19     6    38 1   
    20     7     8 ar  
    21     7    27 1   
    22     8     9 ar  
    23     8    28 1   
    24     9    10 ar  
    25     9    12 1   
    26    10    11 ar  
    27    10    29 1   
    28    11    30 1   
    29    12    31 1   
    30    12    37 2   
    31    13    14 1   
    32    13    15 1   
    33    13    32 1   
    34    13    33 1   
    35    14    34 1   
    36    14    35 1   
    37    15    38 1   
    38    16    36 1   
    39    17    38 2   
@<TRIPOS>SUBSTRUCTURE
     1 V4K         1 TEMP              0 ****  ****    0 ROOT
