@<TRIPOS>MOLECULE
V4L
   39    39     1     0     0
SMALL
No Charge or Current Charge


@<TRIPOS>ATOM
      1 N1          13.6860    13.1670   -48.9620 nt         1 V4L      -0.619000
      2 C7          14.5470    13.1120   -43.1680 c3         1 V4L       0.003300
      3 C8          13.2080    13.8920   -43.3230 c3         1 V4L      -0.082100
      4 C9          14.1820    11.6320   -42.8490 c3         1 V4L      -0.082100
      5 C1          17.1040    14.6740   -39.9350 ca         1 V4L      -0.079300
      6 C5          15.1180    14.8870   -41.3380 ca         1 V4L      -0.106500
      7 C6          15.9450    15.3720   -40.3100 ca         1 V4L      -0.111500
      8 C4          15.4280    13.6810   -42.0170 ca         1 V4L      -0.075300
      9 C3          16.6040    12.9950   -41.6300 ca         1 V4L      -0.106500
     10 C2          17.4290    13.4830   -40.6020 ca         1 V4L      -0.111500
     11 O           11.9780    12.8650   -47.5590 o          1 V4L      -0.586100
     12 C13         13.1420    13.2000   -47.7200 c          1 V4L       0.591100
     13 C12         14.0740    13.6820   -46.5640 c3         1 V4L       0.104800
     14 N           14.7430    12.6310   -45.7200 n3         1 V4L      -0.729600
     15 C11         15.6500    11.7600   -46.5050 c3         1 V4L       0.164100
     16 C10         15.3910    13.1740   -44.4880 c3         1 V4L       0.187800
     17 H22         13.1210    12.8610   -49.7400 hn         1 V4L       0.313000
     18 H21         14.6480    13.4390   -49.1010 hn         1 V4L       0.313000
     19 H8          12.6560    13.9130   -42.3760 hc         1 V4L       0.039867
     20 H9          13.3850    14.9250   -43.6460 hc         1 V4L       0.039867
     21 H10         12.5550    13.4150   -44.0630 hc         1 V4L       0.039867
     22 H12         13.7020    11.5560   -41.8650 hc         1 V4L       0.039867
     23 H13         13.4860    11.2280   -43.5940 hc         1 V4L       0.039867
     24 H11         15.0650    10.9840   -42.8470 hc         1 V4L       0.039867
     25 H6          14.2400    15.4730   -41.5900 ha         1 V4L       0.111000
     26 H7          15.6810    16.2980   -39.8030 ha         1 V4L       0.109000
     27 H5          16.8970    12.0740   -42.1280 ha         1 V4L       0.111000
     28 H4          18.3240    12.9300   -40.3260 ha         1 V4L       0.109000
     29 H20         14.8390    14.3280   -47.0140 h1         1 V4L       0.042200
     30 H19         13.4570    14.3390   -45.9420 h1         1 V4L       0.042200
     31 H18         16.0620    10.9610   -45.8740 h1         1 V4L       0.033033
     32 H16         15.1150    11.2820   -47.3360 h1         1 V4L       0.033033
     33 H17         16.4880    12.3380   -46.9190 h1         1 V4L       0.033033
     34 H14         16.3220    12.6220   -44.3010 h1         1 V4L       0.035200
     35 H15         15.6970    14.2160   -44.6580 h1         1 V4L       0.035200
     36 H1          17.6770    14.8060   -37.8480 hc         1 V4L       0.041367
     37 H2          19.0410    14.9120   -38.9730 hc         1 V4L       0.041367
     38 H3          17.9610    16.2960   -38.7640 hc         1 V4L       0.041367
     39 C           17.9950    15.2010   -38.8200 c3         1 V4L      -0.044800
@<TRIPOS>BOND
     1     1    12 1   
     2     1    17 1   
     3     1    18 1   
     4     2     3 1   
     5     2     4 1   
     6     2     8 1   
     7     2    16 1   
     8     3    19 1   
     9     3    20 1   
    10     3    21 1   
    11     4    22 1   
    12     4    23 1   
    13     4    24 1   
    14     5     7 ar  
    15     5    10 ar  
    16     5    39 1   
    17     6     7 ar  
    18     6     8 ar  
    19     6    25 1   
    20     7    26 1   
    21     8     9 ar  
    22     9    10 ar  
    23     9    27 1   
    24    10    28 1   
    25    11    12 2   
    26    12    13 1   
    27    13    14 1   
    28    13    29 1   
    29    13    30 1   
    30    14    15 1   
    31    14    16 1   
    32    15    31 1   
    33    15    32 1   
    34    15    33 1   
    35    16    34 1   
    36    16    35 1   
    37    36    39 1   
    38    37    39 1   
    39    38    39 1   
@<TRIPOS>SUBSTRUCTURE
     1 V4L         1 TEMP              0 ****  ****    0 ROOT
