@<TRIPOS>MOLECULE
V4L
   39    39     1     0     0
SMALL
abcg2


@<TRIPOS>ATOM
      1 N1          13.4250    13.6780   -48.8640 nt         1 V4L      -0.619000
      2 C7          14.5700    13.0930   -43.1900 c3         1 V4L       0.003300
      3 C8          13.2640    13.8640   -43.4000 c3         1 V4L      -0.082100
      4 C9          14.2200    11.6240   -42.8950 c3         1 V4L      -0.082100
      5 C1          17.0680    14.7110   -39.9830 ca         1 V4L      -0.079300
      6 C5          15.0760    14.8370   -41.3690 ca         1 V4L      -0.106500
      7 C6          15.8850    15.3460   -40.3550 ca         1 V4L      -0.111500
      8 C4          15.4150    13.6690   -42.0530 ca         1 V4L      -0.075300
      9 C3          16.6070    13.0370   -41.6770 ca         1 V4L      -0.106500
     10 C2          17.4140    13.5450   -40.6680 ca         1 V4L      -0.111500
     11 O           12.4480    12.3590   -47.3130 o          1 V4L      -0.586100
     12 C13         13.3420    13.1380   -47.6340 c          1 V4L       0.591100
     13 C12         14.4180    13.6150   -46.6580 c3         1 V4L       0.104800
     14 N           14.7700    12.6210   -45.6710 n3         1 V4L      -0.729600
     15 C11         15.4930    11.5020   -46.2580 c3         1 V4L       0.164100
     16 C10         15.4250    13.1770   -44.4850 c3         1 V4L       0.187800
     17 H22         12.7140    13.4750   -49.5490 hn         1 V4L       0.313000
     18 H21         14.1810    14.2900   -49.1230 hn         1 V4L       0.313000
     19 H8          12.6390    13.8350   -42.5040 hc         1 V4L       0.039867
     20 H9          13.4440    14.9100   -43.6570 hc         1 V4L       0.039867
     21 H10         12.7040    13.4080   -44.2160 hc         1 V4L       0.039867
     22 H12         13.6160    11.5530   -41.9880 hc         1 V4L       0.039867
     23 H13         13.6480    11.2080   -43.7250 hc         1 V4L       0.039867
     24 H11         15.1120    11.0130   -42.7600 hc         1 V4L       0.039867
     25 H6          14.1700    15.3700   -41.6190 ha         1 V4L       0.111000
     26 H7          15.5870    16.2580   -39.8490 ha         1 V4L       0.109000
     27 H5          16.9180    12.1300   -42.1800 ha         1 V4L       0.111000
     28 H4          18.3310    13.0270   -40.4100 ha         1 V4L       0.109000
     29 H20         15.2930    13.9690   -47.2280 h1         1 V4L       0.042200
     30 H19         13.9950    14.4880   -46.1550 h1         1 V4L       0.042200
     31 H18         15.6720    10.7400   -45.5000 h1         1 V4L       0.033033
     32 H16         14.8980    11.0520   -47.0540 h1         1 V4L       0.033033
     33 H17         16.4640    11.8040   -46.6830 h1         1 V4L       0.033033
     34 H14         16.3630    12.6460   -44.3150 h1         1 V4L       0.035200
     35 H15         15.6900    14.2260   -44.6510 h1         1 V4L       0.035200
     36 H1          17.6070    14.8420   -37.9010 hc         1 V4L       0.041367
     37 H2          18.9720    14.9690   -39.0060 hc         1 V4L       0.041367
     38 H3          17.8600    16.3330   -38.8040 hc         1 V4L       0.041367
     39 C           17.9250    15.2450   -38.8670 c3         1 V4L      -0.044800
@<TRIPOS>BOND
     1     1    12 1   
     2     1    17 1   
     3     1    18 1   
     4     2     3 1   
     5     2     4 1   
     6     2     8 1   
     7     2    16 1   
     8     3    19 1   
     9     3    20 1   
    10     3    21 1   
    11     4    22 1   
    12     4    23 1   
    13     4    24 1   
    14     5     7 ar  
    15     5    10 ar  
    16     5    39 1   
    17     6     7 ar  
    18     6     8 ar  
    19     6    25 1   
    20     7    26 1   
    21     8     9 ar  
    22     9    10 ar  
    23     9    27 1   
    24    10    28 1   
    25    11    12 2   
    26    12    13 1   
    27    13    14 1   
    28    13    29 1   
    29    13    30 1   
    30    14    15 1   
    31    14    16 1   
    32    15    31 1   
    33    15    32 1   
    34    15    33 1   
    35    16    34 1   
    36    16    35 1   
    37    36    39 1   
    38    37    39 1   
    39    38    39 1   
@<TRIPOS>SUBSTRUCTURE
     1 V4L         1 TEMP              0 ****  ****    0 ROOT
