@<TRIPOS>MOLECULE
V4M
   50    53     1     0     0
SMALL
No Charge or Current Charge


@<TRIPOS>ATOM
      1 C1         -16.4480   128.7500    25.3230 ca         1 V4M      -0.118000
      2 C2         -16.3740   130.1640    25.3670 ca         1 V4M      -0.075300
      3 C3         -17.1510   130.8810    26.3050 ca         1 V4M      -0.087000
      4 C4         -17.2880   128.0480    26.2110 ca         1 V4M      -0.030000
      5 C5         -18.0410   128.7920    27.1300 ca         1 V4M      -0.155600
      6 C6         -17.9840   130.1730    27.1840 ca         1 V4M      -0.073300
      7 N1         -19.4570   129.4640    28.8190 n          1 V4M      -0.408800
      8 N2         -23.0280   129.6700    30.0020 ns         1 V4M      -0.484500
      9 N3         -16.1820   131.2590    23.1670 ns         1 V4M      -0.495900
     10 C7         -18.8980   130.7390    28.2620 c5         1 V4M       0.142300
     11 C8         -18.9900   128.3190    28.1520 c          1 V4M       0.592600
     12 C9         -20.5410   129.4230    29.8460 c6         1 V4M       0.041700
     13 C10        -20.5010   130.6260    30.8290 c6         1 V4M      -0.082400
     14 C11        -21.6540   130.5450    31.8570 c6         1 V4M      -0.165400
     15 C12        -23.0230   130.2980    31.2140 c          1 V4M       0.577000
     16 C13        -21.9730   129.1860    29.2750 c          1 V4M       0.550000
     17 C14        -15.4700   130.9110    24.3970 c3         1 V4M       0.146300
     18 C15        -16.1940   130.4940    22.0160 c          1 V4M       0.558100
     19 O2         -22.1810   128.5710    28.2400 o          1 V4M      -0.495000
     20 C16        -17.0680   131.0530    20.8500 c3         1 V4M       0.160300
     21 C17        -16.9850   132.5890    20.7800 ca         1 V4M      -0.166300
     22 C18        -18.0580   133.4070    21.2050 ca         1 V4M      -0.058000
     23 C19        -17.9510   134.8070    21.1440 ca         1 V4M      -0.109500
     24 C20        -16.7760   135.4030    20.6620 ca         1 V4M       0.140000
     25 C21        -15.7040   134.6020    20.2400 ca         1 V4M      -0.109500
     26 C22        -15.8070   133.2020    20.3000 ca         1 V4M      -0.058000
     27 F1         -16.6670   130.5170    19.6700 f          1 V4M      -0.103000
     28 F2         -18.3460   130.6320    21.0200 f          1 V4M      -0.103000
     29 O3         -24.0590   130.6900    31.7230 o          1 V4M      -0.511000
     30 O4         -15.5630   129.4450    21.9390 o          1 V4M      -0.548100
     31 Cl1        -16.6450   137.1560    20.5880 cl         1 V4M      -0.190000
     32 H1         -15.8560   128.1970    24.5980 ha         1 V4M       0.118000
     33 H2         -17.1090   131.9680    26.3470 ha         1 V4M       0.121000
     34 H3         -17.3510   126.9620    26.1820 ha         1 V4M       0.138000
     35 H4         -23.9410   129.5180    29.5980 hn         1 V4M       0.331500
     36 H5         -16.7220   132.1160    23.1480 hn         1 V4M       0.334500
     37 H6         -18.3320   131.3040    29.0140 h1         1 V4M       0.065200
     38 H7         -19.6810   131.3800    27.8350 h1         1 V4M       0.065200
     39 H8         -20.3680   128.5260    30.4570 h1         1 V4M       0.107700
     40 H9         -19.5320   130.6620    31.3470 hc         1 V4M       0.063700
     41 H10        -20.5960   131.5690    30.2710 hc         1 V4M       0.063700
     42 H11        -21.7050   131.4150    32.5250 hc         1 V4M       0.084200
     43 H12        -21.4620   129.6690    32.4910 hc         1 V4M       0.084200
     44 H13        -14.5900   130.2980    24.1580 h1         1 V4M       0.067700
     45 H14        -15.1080   131.8350    24.8680 h1         1 V4M       0.067700
     46 H15        -18.9790   132.9680    21.5860 ha         1 V4M       0.133000
     47 H16        -18.7780   135.4310    21.4720 ha         1 V4M       0.135500
     48 H17        -14.7940   135.0660    19.8690 ha         1 V4M       0.135500
     49 H18        -14.9650   132.5930    19.9720 ha         1 V4M       0.133000
     50 O1         -19.3020   127.1610    28.3910 o          1 V4M      -0.530000
@<TRIPOS>BOND
     1     1     2 ar  
     2     1     4 ar  
     3     1    32 1   
     4     2     3 ar  
     5     2    17 1   
     6     3     6 ar  
     7     3    33 1   
     8     4     5 ar  
     9     4    34 1   
    10     5     6 ar  
    11     5    11 1   
    12     6    10 1   
    13     7    10 1   
    14     7    11 1   
    15     7    12 1   
    16     8    15 1   
    17     8    16 1   
    18     8    35 1   
    19     9    17 1   
    20     9    18 1   
    21     9    36 1   
    22    10    37 1   
    23    10    38 1   
    24    11    50 2   
    25    12    13 1   
    26    12    16 1   
    27    12    39 1   
    28    13    14 1   
    29    13    40 1   
    30    13    41 1   
    31    14    15 1   
    32    14    42 1   
    33    14    43 1   
    34    15    29 2   
    35    16    19 2   
    36    17    44 1   
    37    17    45 1   
    38    18    20 1   
    39    18    30 2   
    40    20    21 1   
    41    20    27 1   
    42    20    28 1   
    43    21    22 ar  
    44    21    26 ar  
    45    22    23 ar  
    46    22    46 1   
    47    23    24 ar  
    48    23    47 1   
    49    24    25 ar  
    50    24    31 1   
    51    25    26 ar  
    52    25    48 1   
    53    26    49 1   
@<TRIPOS>SUBSTRUCTURE
     1 V4M         1 TEMP              0 ****  ****    0 ROOT
