@<TRIPOS>MOLECULE
V4M
   50    53     1     0     0
SMALL
bcc


@<TRIPOS>ATOM
      1 C1         -15.5170   129.6400    26.4850 ca         1 V4M      -0.136000
      2 C2         -16.1910   130.7260    25.9120 ca         1 V4M      -0.075300
      3 C3         -17.4700   131.0570    26.3420 ca         1 V4M      -0.105000
      4 C4         -16.0950   128.8820    27.4880 ca         1 V4M      -0.048000
      5 C5         -17.3700   129.2300    27.9070 ca         1 V4M      -0.155600
      6 C6         -18.0480   130.2920    27.3410 ca         1 V4M      -0.073300
      7 N1         -19.3550   129.3680    28.9840 n          1 V4M      -0.475800
      8 N2         -22.7470   128.1060    29.4610 ns         1 V4M      -0.618500
      9 N3         -16.2870   132.4620    24.1320 ns         1 V4M      -0.562900
     10 C7         -19.3890   130.4230    27.9900 c5         1 V4M       0.142300
     11 C8         -18.2210   128.6150    28.9410 c          1 V4M       0.735100
     12 C9         -20.4890   129.0120    29.7780 c6         1 V4M       0.041700
     13 C10        -21.2030   130.2020    30.4060 c6         1 V4M      -0.082400
     14 C11        -22.3340   129.6910    31.2830 c6         1 V4M      -0.165400
     15 C12        -23.2710   128.7670    30.5560 c          1 V4M       0.719500
     16 C13        -21.4650   128.1700    28.9680 c          1 V4M       0.692500
     17 C14        -15.4620   131.5300    24.8600 c3         1 V4M       0.146300
     18 C15        -17.0870   132.0640    23.1410 c          1 V4M       0.625100
     19 O2         -21.1490   127.5720    27.9680 o          1 V4M      -0.570500
     20 C16        -17.8610   133.1740    22.4100 c3         1 V4M       0.402900
     21 C17        -17.2700   133.4400    21.0570 ca         1 V4M      -0.166300
     22 C18        -16.2890   134.4120    20.9020 ca         1 V4M      -0.076000
     23 C19        -15.7140   134.6330    19.6600 ca         1 V4M      -0.127500
     24 C20        -16.1280   133.8720    18.5780 ca         1 V4M       0.048400
     25 C21        -17.1010   132.8940    18.7190 ca         1 V4M      -0.127500
     26 C22        -17.6690   132.6790    19.9640 ca         1 V4M      -0.076000
     27 F1         -19.1470   132.7650    22.3030 f          1 V4M      -0.224300
     28 F2         -17.8750   134.3140    23.1520 f          1 V4M      -0.224300
     29 O3         -24.4180   128.5770    30.8860 o          1 V4M      -0.586500
     30 O4         -17.2080   130.9180    22.7560 o          1 V4M      -0.548100
     31 CL1        -15.4150   134.1440    17.0260 cl         1 V4M      -0.098400
     32 H1         -14.5210   129.3950    26.1350 ha         1 V4M       0.136000
     33 H2         -18.0060   131.8950    25.9150 ha         1 V4M       0.139000
     34 H3         -15.5650   128.0480    27.9290 ha         1 V4M       0.156000
     35 H4         -23.3850   127.4930    28.9640 hn         1 V4M       0.331500
     36 H5         -16.2800   133.4260    24.4230 hn         1 V4M       0.334500
     37 H6         -19.5230   131.4050    28.4490 h1         1 V4M       0.065200
     38 H7         -20.2040   130.2770    27.2750 h1         1 V4M       0.065200
     39 H8         -20.1310   128.3660    30.5880 h1         1 V4M       0.107700
     40 H9         -20.4970   130.7780    31.0020 hc         1 V4M       0.063700
     41 H10        -21.6030   130.8660    29.6360 hc         1 V4M       0.063700
     42 H11        -22.9190   130.5120    31.6950 hc         1 V4M       0.084200
     43 H12        -21.9300   129.1350    32.1350 hc         1 V4M       0.084200
     44 H13        -14.9700   130.8550    24.1580 h1         1 V4M       0.067700
     45 H14        -14.6710   132.1090    25.3380 h1         1 V4M       0.067700
     46 H15        -15.9560   135.0120    21.7370 ha         1 V4M       0.151000
     47 H16        -14.9540   135.3920    19.5420 ha         1 V4M       0.153500
     48 H17        -17.4150   132.3030    17.8700 ha         1 V4M       0.153500
     49 H18        -18.4240   131.9120    20.0640 ha         1 V4M       0.151000
     50 O1         -17.9770   127.6440    29.6350 o          1 V4M      -0.605500
@<TRIPOS>BOND
     1     1     2 ar  
     2     1     4 ar  
     3     1    32 1   
     4     2     3 ar  
     5     2    17 1   
     6     3     6 ar  
     7     3    33 1   
     8     4     5 ar  
     9     4    34 1   
    10     5     6 ar  
    11     5    11 1   
    12     6    10 1   
    13     7    10 1   
    14     7    11 1   
    15     7    12 1   
    16     8    15 1   
    17     8    16 1   
    18     8    35 1   
    19     9    17 1   
    20     9    18 1   
    21     9    36 1   
    22    10    37 1   
    23    10    38 1   
    24    11    50 2   
    25    12    13 1   
    26    12    16 1   
    27    12    39 1   
    28    13    14 1   
    29    13    40 1   
    30    13    41 1   
    31    14    15 1   
    32    14    42 1   
    33    14    43 1   
    34    15    29 2   
    35    16    19 2   
    36    17    44 1   
    37    17    45 1   
    38    18    20 1   
    39    18    30 2   
    40    20    21 1   
    41    20    27 1   
    42    20    28 1   
    43    21    22 ar  
    44    21    26 ar  
    45    22    23 ar  
    46    22    46 1   
    47    23    24 ar  
    48    23    47 1   
    49    24    25 ar  
    50    24    31 1   
    51    25    26 ar  
    52    25    48 1   
    53    26    49 1   
@<TRIPOS>SUBSTRUCTURE
     1 V4M         1 TEMP              0 ****  ****    0 ROOT
