@<TRIPOS>MOLECULE
V4Q
   62    67     1     0     0
SMALL
No Charge or Current Charge


@<TRIPOS>ATOM
      1 C4         -18.1770     7.1280   -27.3360 ca         1 V4Q      -0.177000
      2 C14         -7.9200    -1.6480   -28.7880 ca         1 V4Q      -0.040000
      3 C5         -17.5530     5.8860   -27.1070 ca         1 V4Q      -0.071000
      4 C6         -16.1390     5.7810   -27.1060 ca         1 V4Q       0.266000
      5 C11        -11.2530     0.6720   -25.8700 cy         1 V4Q       0.106700
      6 C7         -15.5100     4.4530   -26.8540 cc         1 V4Q       0.366500
      7 C8         -14.0350     2.7940   -26.6190 cc         1 V4Q       0.409800
      8 C9         -12.7720     1.9830   -26.6180 cy         1 V4Q      -0.120000
      9 C10        -12.7440     0.4460   -26.2940 cy         1 V4Q      -0.088400
     10 C13         -8.5930    -0.4540   -28.4330 ca         1 V4Q      -0.122600
     11 N1         -16.1660     3.3320   -26.5620 nd         1 V4Q      -0.364000
     12 N2         -15.2510     2.3060   -26.4180 nd         1 V4Q      -0.352000
     13 C3         -17.3610     8.2550   -27.5600 ca         1 V4Q       0.109100
     14 N3         -10.2270     0.5930   -26.8760 ns         1 V4Q      -0.494900
     15 C2         -19.2940     9.7690   -27.8270 c3         1 V4Q       0.162600
     16 O1         -17.8790     9.5170   -27.7940 os         1 V4Q      -0.338100
     17 O2          -9.8990    -1.6330   -26.7900 o          1 V4Q      -0.619100
     18 C15         -6.9610    -1.6700   -29.8070 ca         1 V4Q      -0.110000
     19 C16         -6.6520    -0.4970   -30.5010 ca         1 V4Q      -0.056000
     20 C17         -7.2930     0.7130   -30.1930 ca         1 V4Q       0.214000
     21 N4          -6.9490     1.8180   -30.9120 nb         1 V4Q      -0.615000
     22 C18         -7.5880     2.9730   -30.5960 ca         1 V4Q       0.292900
     23 C19         -8.5610     3.0290   -29.5750 ca         1 V4Q       0.315900
     24 N5          -8.9100     1.9330   -28.8510 nb         1 V4Q      -0.668000
     25 C20         -8.2850     0.7520   -29.1420 ca         1 V4Q       0.255000
     26 C21        -11.7370     2.0970   -25.4440 cy         1 V4Q      -0.088400
     27 N6         -14.1650     4.1370   -26.8430 na         1 V4Q      -0.256800
     28 C22        -13.1260     4.9290   -27.3370 ca         1 V4Q      -0.032200
     29 C23        -12.2260     5.5340   -26.4390 ca         1 V4Q      -0.069000
     30 C24        -11.1540     6.3040   -26.9240 ca         1 V4Q      -0.127000
     31 C25        -10.9730     6.4730   -28.3080 ca         1 V4Q      -0.076000
     32 C26        -11.8660     5.8700   -29.2090 ca         1 V4Q      -0.151000
     33 C27        -12.9380     5.1010   -28.7270 ca         1 V4Q       0.204000
     34 F1         -13.7790     4.5120   -29.6090 f          1 V4Q      -0.159000
     35 N7         -15.3600     6.8810   -27.3200 nb         1 V4Q      -0.641000
     36 C28        -15.9610     8.0770   -27.5410 ca         1 V4Q       0.307900
     37 H6         -19.2620     7.1910   -27.3350 ha         1 V4Q       0.127000
     38 H7         -18.1670     5.0070   -26.9320 ha         1 V4Q       0.150000
     39 H11        -10.9420     0.0530   -25.0200 h1         1 V4Q       0.078700
     40 H8         -12.3330     2.2070   -27.5980 hc         1 V4Q       0.073700
     41 H10        -13.4060     0.1360   -25.4770 hc         1 V4Q       0.069950
     42 H9         -12.9040    -0.2270   -27.1430 hc         1 V4Q       0.069950
     43 H12         -9.9380     1.4310   -27.3720 hn         1 V4Q       0.354500
     44 H1         -20.5600    11.5080   -28.1450 hc         1 V4Q       0.050367
     45 H2         -19.0260    11.8730   -27.3240 hc         1 V4Q       0.050367
     46 H3         -19.0450    11.5390   -29.0740 hc         1 V4Q       0.050367
     47 H4         -19.7570     9.5150   -26.8650 h1         1 V4Q       0.037700
     48 H5         -19.7760     9.1810   -28.6180 h1         1 V4Q       0.037700
     49 H14         -6.4560    -2.6000   -30.0590 ha         1 V4Q       0.128000
     50 H15         -5.9070    -0.5230   -31.2920 ha         1 V4Q       0.138000
     51 H16         -7.3200     3.8610   -31.1660 h4         1 V4Q       0.033100
     52 H17         -9.0670     3.9620   -29.3330 h4         1 V4Q       0.030100
     53 H18        -10.9980     2.9010   -25.5310 hc         1 V4Q       0.069950
     54 H19        -12.1850     2.1470   -24.4440 hc         1 V4Q       0.069950
     55 H20        -12.3560     5.4050   -25.3670 ha         1 V4Q       0.130000
     56 H21        -10.4610     6.7690   -26.2260 ha         1 V4Q       0.122000
     57 H22        -10.1420     7.0700   -28.6800 ha         1 V4Q       0.120000
     58 H23        -11.7300     5.9940   -30.2810 ha         1 V4Q       0.137000
     59 H24        -15.2970     8.9240   -27.7090 h4         1 V4Q       0.033100
     60 C12         -9.6160    -0.5580   -27.3070 c          1 V4Q       0.610700
     61 H13         -8.1360    -2.5790   -28.2670 ha         1 V4Q       0.150000
     62 C1         -19.4910    11.2660   -28.1100 c3         1 V4Q      -0.095100
@<TRIPOS>BOND
     1     1     3 ar  
     2     1    13 ar  
     3     1    37 1   
     4     2    10 ar  
     5     2    18 ar  
     6     2    61 1   
     7     3     4 ar  
     8     3    38 1   
     9     4     6 1   
    10     4    35 ar  
    11     5     9 1   
    12     5    14 1   
    13     5    26 1   
    14     5    39 1   
    15     6    11 2   
    16     6    27 1   
    17     7     8 1   
    18     7    12 2   
    19     7    27 1   
    20     8     9 1   
    21     8    26 1   
    22     8    40 1   
    23     9    41 1   
    24     9    42 1   
    25    10    25 ar  
    26    10    60 1   
    27    11    12 1   
    28    13    16 1   
    29    13    36 ar  
    30    14    43 1   
    31    14    60 1   
    32    15    16 1   
    33    15    47 1   
    34    15    48 1   
    35    15    62 1   
    36    17    60 2   
    37    18    19 ar  
    38    18    49 1   
    39    19    20 ar  
    40    19    50 1   
    41    20    21 ar  
    42    20    25 ar  
    43    21    22 ar  
    44    22    23 ar  
    45    22    51 1   
    46    23    24 ar  
    47    23    52 1   
    48    24    25 ar  
    49    26    53 1   
    50    26    54 1   
    51    27    28 1   
    52    28    29 ar  
    53    28    33 ar  
    54    29    30 ar  
    55    29    55 1   
    56    30    31 ar  
    57    30    56 1   
    58    31    32 ar  
    59    31    57 1   
    60    32    33 ar  
    61    32    58 1   
    62    33    34 1   
    63    35    36 ar  
    64    36    59 1   
    65    44    62 1   
    66    45    62 1   
    67    46    62 1   
@<TRIPOS>SUBSTRUCTURE
     1 V4Q         1 TEMP              0 ****  ****    0 ROOT
