@<TRIPOS>MOLECULE
V4Q
   62    67     1     0     0
SMALL
abcg2


@<TRIPOS>ATOM
      1 C4         -18.3390     7.0650   -26.8320 ca         1 V4Q      -0.177000
      2 C14         -8.3770    -1.9760   -28.7240 ca         1 V4Q      -0.040000
      3 C5         -17.6280     5.8860   -26.7010 ca         1 V4Q      -0.071000
      4 C6         -16.2750     5.8670   -27.0180 ca         1 V4Q       0.266000
      5 C11        -11.3120     1.0250   -26.2590 cy         1 V4Q       0.106700
      6 C7         -15.5240     4.6190   -26.9040 cc         1 V4Q       0.366500
      7 C8         -13.9860     3.0920   -26.9730 cc         1 V4Q       0.409800
      8 C9         -12.6960     2.4040   -27.1980 cy         1 V4Q      -0.120000
      9 C10        -12.6750     0.8810   -26.9710 cy         1 V4Q      -0.088400
     10 C13         -8.6490    -0.6820   -28.3460 ca         1 V4Q      -0.122600
     11 N1         -16.0300     3.5040   -26.4550 nd         1 V4Q      -0.364000
     12 N2         -15.0720     2.5530   -26.4990 nd         1 V4Q      -0.352000
     13 C3         -17.6720     8.2020   -27.2820 ca         1 V4Q       0.109100
     14 N3         -10.1730     0.7600   -27.1020 ns         1 V4Q      -0.494900
     15 C2         -19.6220     9.5600   -27.2380 c3         1 V4Q       0.162600
     16 O1         -18.2260     9.4010   -27.4760 os         1 V4Q      -0.338100
     17 O2         -10.5240    -1.4560   -27.1200 o          1 V4Q      -0.619100
     18 C15         -7.2770    -2.3080   -29.5350 ca         1 V4Q      -0.110000
     19 C16         -6.4250    -1.3370   -29.9770 ca         1 V4Q      -0.056000
     20 C17         -6.6600     0.0060   -29.6170 ca         1 V4Q       0.214000
     21 N4          -5.8050     0.9540   -30.0650 nb         1 V4Q      -0.615000
     22 C18         -6.0410     2.1880   -29.7250 ca         1 V4Q       0.292900
     23 C19         -7.1470     2.5370   -28.9190 ca         1 V4Q       0.315900
     24 N5          -7.9810     1.6410   -28.4760 nb         1 V4Q      -0.668000
     25 C20         -7.7720     0.3450   -28.8040 ca         1 V4Q       0.255000
     26 C21        -11.5850     2.5330   -26.1250 cy         1 V4Q      -0.088400
     27 N6         -14.2170     4.4110   -27.2410 na         1 V4Q      -0.256800
     28 C22        -13.2630     5.3000   -27.7900 ca         1 V4Q      -0.032200
     29 C23        -12.2060     5.7660   -27.0270 ca         1 V4Q      -0.069000
     30 C24        -11.2510     6.5950   -27.6000 ca         1 V4Q      -0.127000
     31 C25        -11.3630     6.9610   -28.9330 ca         1 V4Q      -0.076000
     32 C26        -12.4250     6.5060   -29.7040 ca         1 V4Q      -0.151000
     33 C27        -13.3590     5.6780   -29.1200 ca         1 V4Q       0.204000
     34 F1         -14.3970     5.2350   -29.8330 f          1 V4Q      -0.159000
     35 N7         -15.6360     6.9580   -27.4310 nb         1 V4Q      -0.641000
     36 C28        -16.3050     8.0840   -27.5600 ca         1 V4Q       0.307900
     37 H6         -19.3920     7.0780   -26.5870 ha         1 V4Q       0.127000
     38 H7         -18.1250     4.9880   -26.3600 ha         1 V4Q       0.150000
     39 H11        -11.2190     0.4770   -25.3200 h1         1 V4Q       0.078700
     40 H8         -12.3030     2.6640   -28.1840 hc         1 V4Q       0.073700
     41 H10        -13.4490     0.5620   -26.2750 hc         1 V4Q       0.069950
     42 H9         -12.7130     0.2500   -27.8570 hc         1 V4Q       0.069950
     43 H12         -9.5680     1.5150   -27.4110 hn         1 V4Q       0.354500
     44 H1         -21.0710    11.1120   -27.4300 hc         1 V4Q       0.050367
     45 H2         -19.4650    11.7040   -27.0110 hc         1 V4Q       0.050367
     46 H3         -19.8150    11.1710   -28.6640 hc         1 V4Q       0.050367
     47 H4         -19.8450     9.3630   -26.1840 h1         1 V4Q       0.037700
     48 H5         -20.1890     8.8400   -27.8390 h1         1 V4Q       0.037700
     49 H14         -7.1130    -3.3430   -29.8020 ha         1 V4Q       0.128000
     50 H15         -5.5710    -1.5670   -30.5990 ha         1 V4Q       0.138000
     51 H16         -5.3620     2.9550   -30.0770 h4         1 V4Q       0.033100
     52 H17         -7.3260     3.5720   -28.6520 h4         1 V4Q       0.030100
     53 H18        -10.7620     3.2150   -26.3440 hc         1 V4Q       0.069950
     54 H19        -11.9890     2.7780   -25.1430 hc         1 V4Q       0.069950
     55 H20        -12.1380     5.4830   -25.9850 ha         1 V4Q       0.130000
     56 H21        -10.4260     6.9570   -27.0020 ha         1 V4Q       0.122000
     57 H22        -10.6220     7.6090   -29.3830 ha         1 V4Q       0.120000
     58 H23        -12.5260     6.7890   -30.7440 ha         1 V4Q       0.137000
     59 H24        -15.7520     8.9530   -27.9030 h4         1 V4Q       0.033100
     60 C12         -9.8620    -0.4860   -27.4710 c          1 V4Q       0.610700
     61 H13         -9.0310    -2.7670   -28.3870 ha         1 V4Q       0.150000
     62 C1         -20.0060    10.9710   -27.6100 c3         1 V4Q      -0.095100
@<TRIPOS>BOND
     1     1     3 ar  
     2     1    13 ar  
     3     1    37 1   
     4     2    10 ar  
     5     2    18 ar  
     6     2    61 1   
     7     3     4 ar  
     8     3    38 1   
     9     4     6 1   
    10     4    35 ar  
    11     5     9 1   
    12     5    14 1   
    13     5    26 1   
    14     5    39 1   
    15     6    11 2   
    16     6    27 1   
    17     7     8 1   
    18     7    12 2   
    19     7    27 1   
    20     8     9 1   
    21     8    26 1   
    22     8    40 1   
    23     9    41 1   
    24     9    42 1   
    25    10    25 ar  
    26    10    60 1   
    27    11    12 1   
    28    13    16 1   
    29    13    36 ar  
    30    14    43 1   
    31    14    60 1   
    32    15    16 1   
    33    15    47 1   
    34    15    48 1   
    35    15    62 1   
    36    17    60 2   
    37    18    19 ar  
    38    18    49 1   
    39    19    20 ar  
    40    19    50 1   
    41    20    21 ar  
    42    20    25 ar  
    43    21    22 ar  
    44    22    23 ar  
    45    22    51 1   
    46    23    24 ar  
    47    23    52 1   
    48    24    25 ar  
    49    26    53 1   
    50    26    54 1   
    51    27    28 1   
    52    28    29 ar  
    53    28    33 ar  
    54    29    30 ar  
    55    29    55 1   
    56    30    31 ar  
    57    30    56 1   
    58    31    32 ar  
    59    31    57 1   
    60    32    33 ar  
    61    32    58 1   
    62    33    34 1   
    63    35    36 ar  
    64    36    59 1   
    65    44    62 1   
    66    45    62 1   
    67    46    62 1   
@<TRIPOS>SUBSTRUCTURE
     1 V4Q         1 TEMP              0 ****  ****    0 ROOT
