@<TRIPOS>MOLECULE
V4R
   36    37     1     0     0
SMALL
No Charge or Current Charge


@<TRIPOS>ATOM
      1 C01          4.8250     7.2160    20.6230 ca         1 V4R      -0.086300
      2 C02          3.8840     6.5270    21.4510 ca         1 V4R      -0.103300
      3 C04          5.8520     8.2720    21.1750 c3         1 V4R       0.015300
      4 C05          2.9730     5.6130    20.8790 ca         1 V4R      -0.137000
      5 C06          3.7750     6.7110    22.9890 c3         1 V4R      -0.015100
      6 C07          3.8750     6.0020    18.6700 ca         1 V4R      -0.105600
      7 C10          6.8790     8.7170    20.0820 c3         1 V4R      -0.081600
      8 C11          2.9540     5.3420    19.5050 ca         1 V4R      -0.058300
      9 C13          3.9140     5.7550    17.1800 c          1 V4R       0.703600
     10 C15          1.9270     4.3580    18.9510 c3         1 V4R      -0.028800
     11 C03          4.7800     6.9250    19.2290 ca         1 V4R      -0.096000
     12 C08          6.7340     7.7010    22.3420 c3         1 V4R      -0.061400
     13 C09          5.1090     9.5750    21.5910 c3         1 V4R      -0.081600
     14 C12          5.0450     6.4320    23.8450 c3         1 V4R      -0.066400
     15 C14          6.1080     7.5310    23.7440 c3         1 V4R      -0.063400
     16 O16          4.1460     4.6220    16.7800 o          1 V4R      -0.723000
     17 O17          3.7780     6.7150    16.4340 o          1 V4R      -0.723000
     18 H19          2.2580     5.0990    21.5180 ha         1 V4R       0.080000
     19 H21          3.3850     7.7050    23.2300 hc         1 V4R       0.029200
     20 H20          3.0040     6.0340    23.3760 hc         1 V4R       0.029200
     21 H28          7.6140     9.4220    20.4880 hc         1 V4R       0.029700
     22 H29          7.4340     7.8570    19.6860 hc         1 V4R       0.029700
     23 H27          6.3870     9.2340    19.2490 hc         1 V4R       0.029700
     24 H36          1.4380     4.7540    18.0530 hc         1 V4R       0.035033
     25 H34          2.3990     3.4040    18.6880 hc         1 V4R       0.035033
     26 H35          1.1360     4.1430    19.6800 hc         1 V4R       0.035033
     27 H03          5.4510     7.4040    18.5260 ha         1 V4R       0.119000
     28 H23          7.1520     6.7370    22.0260 hc         1 V4R       0.032200
     29 H22          7.5980     8.3620    22.4860 hc         1 V4R       0.032200
     30 H26          5.8170    10.3290    21.9550 hc         1 V4R       0.029700
     31 H24          4.5730    10.0010    20.7340 hc         1 V4R       0.029700
     32 H25          4.3730     9.4110    22.3800 hc         1 V4R       0.029700
     33 H31          4.7460     6.3380    24.8970 hc         1 V4R       0.030700
     34 H30          5.4760     5.4670    23.5510 hc         1 V4R       0.030700
     35 H33          6.9140     7.2800    24.4440 hc         1 V4R       0.022200
     36 H32          5.6940     8.4830    24.0940 hc         1 V4R       0.022200
@<TRIPOS>BOND
     1     1     2 ar  
     2     1     3 1   
     3     1    11 ar  
     4     2     4 ar  
     5     2     5 1   
     6     3     7 1   
     7     3    12 1   
     8     3    13 1   
     9     4     8 ar  
    10     4    18 1   
    11     5    14 1   
    12     5    19 1   
    13     5    20 1   
    14     6     8 ar  
    15     6     9 1   
    16     6    11 ar  
    17     7    21 1   
    18     7    22 1   
    19     7    23 1   
    20     8    10 1   
    21     9    16 1   
    22     9    17 1   
    23    10    24 1   
    24    10    25 1   
    25    10    26 1   
    26    11    27 1   
    27    12    15 1   
    28    12    28 1   
    29    12    29 1   
    30    13    30 1   
    31    13    31 1   
    32    13    32 1   
    33    14    15 1   
    34    14    33 1   
    35    14    34 1   
    36    15    35 1   
    37    15    36 1   
@<TRIPOS>SUBSTRUCTURE
     1 V4R         1 TEMP              0 ****  ****    0 ROOT
