@<TRIPOS>MOLECULE
V4R
   36    37     1     0     0
SMALL
abcg2


@<TRIPOS>ATOM
      1 C01          4.8120     7.2390    20.6430 ca         1 V4R      -0.086300
      2 C02          3.8740     6.5830    21.4700 ca         1 V4R      -0.103300
      3 C04          5.8260     8.2720    21.1680 c3         1 V4R       0.015300
      4 C05          2.9820     5.6820    20.8850 ca         1 V4R      -0.137000
      5 C06          3.7590     6.7650    22.9680 c3         1 V4R      -0.015100
      6 C07          3.9030     6.0040    18.7100 ca         1 V4R      -0.105600
      7 C10          6.8010     8.7240    20.0650 c3         1 V4R      -0.081600
      8 C11          2.9710     5.3600    19.5290 ca         1 V4R      -0.058300
      9 C13          4.0150     5.7300    17.2180 c          1 V4R       0.703600
     10 C15          1.9640     4.3700    19.0060 c3         1 V4R      -0.028800
     11 C03          4.7770     6.9290    19.2810 ca         1 V4R      -0.096000
     12 C08          6.7190     7.6810    22.2930 c3         1 V4R      -0.061400
     13 C09          5.0910     9.5420    21.6410 c3         1 V4R      -0.081600
     14 C12          5.0190     6.4160    23.7650 c3         1 V4R      -0.066400
     15 C14          6.1180     7.4680    23.6800 c3         1 V4R      -0.063400
     16 O16          4.0940     4.5260    16.8630 o          1 V4R      -0.723000
     17 O17          4.0440     6.7290    16.4530 o          1 V4R      -0.723000
     18 H19          2.2530     5.2000    21.5290 ha         1 V4R       0.080000
     19 H21          3.4590     7.7870    23.2140 hc         1 V4R       0.029200
     20 H20          2.9430     6.1260    23.3110 hc         1 V4R       0.029200
     21 H28          7.4930     9.4570    20.4830 hc         1 V4R       0.029700
     22 H29          7.3880     7.8900    19.6760 hc         1 V4R       0.029700
     23 H27          6.2830     9.1990    19.2310 hc         1 V4R       0.029700
     24 H36          1.4960     4.7230    18.0860 hc         1 V4R       0.035033
     25 H34          2.4340     3.4130    18.7710 hc         1 V4R       0.035033
     26 H35          1.1820     4.1950    19.7460 hc         1 V4R       0.035033
     27 H03          5.4600     7.4200    18.6060 ha         1 V4R       0.119000
     28 H23          7.1300     6.7340    21.9280 hc         1 V4R       0.032200
     29 H22          7.5690     8.3600    22.4080 hc         1 V4R       0.032200
     30 H26          5.8080    10.2630    22.0430 hc         1 V4R       0.029700
     31 H24          4.5790    10.0080    20.7960 hc         1 V4R       0.029700
     32 H25          4.3510     9.3460    22.4120 hc         1 V4R       0.029700
     33 H31          4.7360     6.2900    24.8140 hc         1 V4R       0.030700
     34 H30          5.4040     5.4490    23.4240 hc         1 V4R       0.030700
     35 H33          6.9330     7.1790    24.3510 hc         1 V4R       0.022200
     36 H32          5.7340     8.4180    24.0650 hc         1 V4R       0.022200
@<TRIPOS>BOND
     1     1     2 ar  
     2     1     3 1   
     3     1    11 ar  
     4     2     4 ar  
     5     2     5 1   
     6     3     7 1   
     7     3    12 1   
     8     3    13 1   
     9     4     8 ar  
    10     4    18 1   
    11     5    14 1   
    12     5    19 1   
    13     5    20 1   
    14     6     8 ar  
    15     6     9 1   
    16     6    11 ar  
    17     7    21 1   
    18     7    22 1   
    19     7    23 1   
    20     8    10 1   
    21     9    16 1   
    22     9    17 1   
    23    10    24 1   
    24    10    25 1   
    25    10    26 1   
    26    11    27 1   
    27    12    15 1   
    28    12    28 1   
    29    12    29 1   
    30    13    30 1   
    31    13    31 1   
    32    13    32 1   
    33    14    15 1   
    34    14    33 1   
    35    14    34 1   
    36    15    35 1   
    37    15    36 1   
@<TRIPOS>SUBSTRUCTURE
     1 V4R         1 TEMP              0 ****  ****    0 ROOT
