@<TRIPOS>MOLECULE
V4T
   55    59     1     0     0
SMALL
abcg2


@<TRIPOS>ATOM
      1 C1          -9.1190     2.8290    12.7850 ce         1 V4T      -0.295200
      2 C2          -7.8470     2.0690    12.9460 c          1 V4T       0.608300
      3 C3          -6.5240     0.4700    14.2010 c6         1 V4T       0.072000
      4 C7          -6.3990    -3.7370    15.8660 ca         1 V4T       0.147100
      5 C8          -6.5530    -2.7820    16.8980 ca         1 V4T      -0.174000
      6 C9          -5.9220    -2.9760    18.1430 ca         1 V4T       0.021000
      7 C10         -4.9270    -3.9690    18.2180 ca         1 V4T       0.209000
      8 C11         -4.6610    -4.8250    17.1870 cp         1 V4T      -0.022000
      9 C12         -5.4540    -4.7250    16.0230 ca         1 V4T       0.101000
     10 C13         -3.5950    -5.8380    17.3030 cp         1 V4T      -0.132000
     11 C14         -3.7320    -6.9690    18.1110 ca         1 V4T       0.199100
     12 C15         -2.7030    -7.9060    18.1780 ca         1 V4T      -0.228000
     13 C16         -1.5440    -7.7110    17.4450 ca         1 V4T      -0.030000
     14 C19         -7.2870    -1.4760    19.1010 ca         1 V4T       0.172900
     15 C20         -7.4110    -1.6280    16.8360 ca         1 V4T       0.430900
     16 C21         -8.9320    -0.2470    15.5120 c6         1 V4T       0.217800
     17 C22         -8.6320     1.2060    15.1650 c6         1 V4T       0.097700
     18 F1          -4.2420    -4.0790    19.3560 f          1 V4T      -0.143000
     19 C18         -2.4180    -5.6880    16.5880 ca         1 V4T       0.236000
     20 F           -2.2990    -4.5980    15.8190 f          1 V4T      -0.170000
     21 C17         -1.3810    -6.5950    16.6360 ca         1 V4T      -0.195000
     22 O2          -4.8830    -7.0960    18.7870 oh         1 V4T      -0.516100
     23 CL          -5.2960    -5.9330    14.8050 cl         1 V4T      -0.172000
     24 O1          -7.2570    -3.7540    14.8280 os         1 V4T      -0.351100
     25 C6          -6.8110    -3.2820    13.5500 c3         1 V4T       0.164600
     26 C5          -7.2310    -1.8420    13.3510 c3         1 V4T      -0.112400
     27 N1          -6.2720    -2.2860    19.2510 nb         1 V4T      -0.187000
     28 N2          -7.8650    -1.1010    17.9590 nb         1 V4T      -0.285000
     29 N3          -7.7380    -1.0580    15.6610 nh         1 V4T      -0.778300
     30 C4          -6.7930    -0.9960    14.5440 c6         1 V4T       0.233500
     31 C23         -8.0620     2.0010    16.3350 c3         1 V4T      -0.108100
     32 N           -7.7450     1.2230    14.0040 n          1 V4T      -0.407800
     33 O           -6.9420     2.2000    12.1320 o          1 V4T      -0.604100
     34 C           -9.1540     3.9500    12.0730 c2         1 V4T      -0.235000
     35 H1         -10.0330     2.4590    13.2290 ha         1 V4T       0.181000
     36 H3          -5.9190     0.5150    13.3000 h1         1 V4T       0.068200
     37 H4          -5.9320     0.9170    15.0060 h1         1 V4T       0.068200
     38 H5          -2.8090    -8.7850    18.8010 ha         1 V4T       0.121000
     39 H6          -0.7500    -8.4440    17.5050 ha         1 V4T       0.119000
     40 H7          -7.6810    -1.0130    20.0000 h5         1 V4T       0.049100
     41 H8          -9.5150    -0.2970    16.4270 h1         1 V4T       0.070200
     42 H9          -9.5380    -0.6790    14.7100 h1         1 V4T       0.070200
     43 H10         -9.5860     1.6510    14.8940 h1         1 V4T       0.063700
     44 H11         -0.4770    -6.4340    16.0640 ha         1 V4T       0.138000
     45 H12         -4.8820    -7.9010    19.3180 ho         1 V4T       0.471000
     46 H13         -7.2540    -3.9370    12.8000 h1         1 V4T       0.058700
     47 H14         -5.7230    -3.3690    13.4710 h1         1 V4T       0.058700
     48 H15         -6.7530    -1.4780    12.4390 hc         1 V4T       0.067700
     49 H16         -8.3080    -1.7670    13.1900 hc         1 V4T       0.067700
     50 H17         -5.8280    -1.3670    14.9000 h1         1 V4T       0.066700
     51 H18         -8.7870     2.0300    17.1480 hc         1 V4T       0.047700
     52 H19         -7.1450     1.5670    16.7310 hc         1 V4T       0.047700
     53 H20         -7.8530     3.0260    16.0300 hc         1 V4T       0.047700
     54 H21        -10.0790     4.4950    11.9430 ha         1 V4T       0.175500
     55 H22         -8.2710     4.3670    11.6080 ha         1 V4T       0.175500
@<TRIPOS>BOND
     1     1     2 1   
     2     1    34 2   
     3     1    35 1   
     4     2    32 1   
     5     2    33 2   
     6     3    30 1   
     7     3    32 1   
     8     3    36 1   
     9     3    37 1   
    10     4     5 ar  
    11     4     9 ar  
    12     4    24 1   
    13     5     6 ar  
    14     5    15 ar  
    15     6     7 ar  
    16     6    27 ar  
    17     7     8 ar  
    18     7    18 1   
    19     8     9 ar  
    20     8    10 1   
    21     9    23 1   
    22    10    11 ar  
    23    10    19 ar  
    24    11    12 ar  
    25    11    22 1   
    26    12    13 ar  
    27    12    38 1   
    28    13    21 ar  
    29    13    39 1   
    30    14    27 ar  
    31    14    28 ar  
    32    14    40 1   
    33    15    28 ar  
    34    15    29 1   
    35    16    17 1   
    36    16    29 1   
    37    16    41 1   
    38    16    42 1   
    39    17    31 1   
    40    17    32 1   
    41    17    43 1   
    42    19    20 1   
    43    19    21 ar  
    44    21    44 1   
    45    22    45 1   
    46    24    25 1   
    47    25    26 1   
    48    25    46 1   
    49    25    47 1   
    50    26    30 1   
    51    26    48 1   
    52    26    49 1   
    53    29    30 1   
    54    30    50 1   
    55    31    51 1   
    56    31    52 1   
    57    31    53 1   
    58    34    54 1   
    59    34    55 1   
@<TRIPOS>SUBSTRUCTURE
     1 V4T         1 TEMP              0 ****  ****    0 ROOT
