@<TRIPOS>MOLECULE
V4T
   55    59     1     0     0
SMALL
No Charge or Current Charge


@<TRIPOS>ATOM
      1 C1         -10.3900     2.2970    12.9620 ce         1 V4T      -0.295200
      2 C2          -8.8960     2.1690    12.8990 c          1 V4T       0.608300
      3 C3          -6.7160     1.3200    13.8550 c6         1 V4T       0.072000
      4 C7          -5.6180    -3.3440    15.7590 ca         1 V4T       0.147100
      5 C8          -5.5050    -2.3430    16.7630 ca         1 V4T      -0.174000
      6 C9          -4.8650    -2.6700    17.9910 ca         1 V4T       0.021000
      7 C10         -4.3720    -3.9770    18.1960 ca         1 V4T       0.209000
      8 C11         -4.4970    -4.9810    17.2100 cp         1 V4T      -0.022000
      9 C12         -5.1260    -4.6480    15.9900 ca         1 V4T       0.101000
     10 C13         -3.9660    -6.3570    17.4570 cp         1 V4T      -0.132000
     11 C14         -4.6570    -7.2710    18.2880 ca         1 V4T       0.199100
     12 C15         -4.1480    -8.5600    18.5130 ca         1 V4T      -0.228000
     13 C16         -2.9420    -8.9610    17.9150 ca         1 V4T      -0.030000
     14 C19         -5.2280    -0.5130    18.7300 ca         1 V4T       0.172900
     15 C20         -6.0040    -1.0150    16.6380 ca         1 V4T       0.430900
     16 C21         -8.1970    -0.6490    15.4500 c6         1 V4T       0.217800
     17 C22         -8.8780     0.6810    14.9970 c6         1 V4T       0.097700
     18 F1          -3.7560    -4.2760    19.3660 f          1 V4T      -0.143000
     19 C18         -2.7520    -6.7780    16.8650 ca         1 V4T       0.236000
     20 F           -2.0550    -5.9320    16.0730 f          1 V4T      -0.170000
     21 C17         -2.2440    -8.0660    17.0900 ca         1 V4T      -0.195000
     22 O2          -5.8340    -6.9150    18.8780 oh         1 V4T      -0.516100
     23 Cl          -5.3000    -5.8760    14.7250 cl         1 V4T      -0.172000
     24 O1          -6.1780    -3.0820    14.5310 os         1 V4T      -0.351100
     25 C6          -5.3870    -2.4110    13.5370 c3         1 V4T       0.164600
     26 C5          -6.0690    -1.0760    13.1880 c3         1 V4T      -0.112400
     27 N1          -4.7300    -1.7390    18.9630 nb         1 V4T      -0.187000
     28 N2          -5.8640    -0.1090    17.6210 nb         1 V4T      -0.285000
     29 N3          -6.7220    -0.5170    15.5410 nh         1 V4T      -0.778300
     30 C4          -6.0550    -0.0110    14.3220 c6         1 V4T       0.233500
     31 C23         -8.9290     1.6850    16.1820 c3         1 V4T      -0.108100
     32 N           -8.2180     1.3110    13.8020 n          1 V4T      -0.407800
     33 O           -8.2630     2.8670    12.1170 o          1 V4T      -0.604100
     34 C          -11.0660     3.4130    12.5940 c2         1 V4T      -0.235000
     35 H1         -10.9440     1.4690    13.3930 ha         1 V4T       0.181000
     36 H3          -6.2990     1.5860    12.8740 h1         1 V4T       0.068200
     37 H4          -6.4080     2.1150    14.5490 h1         1 V4T       0.068200
     38 H5          -4.6830    -9.2600    19.1510 ha         1 V4T       0.121000
     39 H6          -2.5490    -9.9610    18.0920 ha         1 V4T       0.119000
     40 H7          -5.1120     0.2220    19.5250 h5         1 V4T       0.049100
     41 H8          -8.6170    -0.9580    16.4190 h1         1 V4T       0.070200
     42 H9          -8.4570    -1.4430    14.7350 h1         1 V4T       0.070200
     43 H10         -9.9110     0.4060    14.7610 h1         1 V4T       0.063700
     44 H11         -1.3090    -8.3670    16.6260 ha         1 V4T       0.138000
     45 H12         -6.1560    -7.6770    19.4030 ho         1 V4T       0.471000
     46 H13         -5.3220    -3.0290    12.6330 h1         1 V4T       0.058700
     47 H14         -4.3650    -2.2260    13.8940 h1         1 V4T       0.058700
     48 H15         -5.5540    -0.6640    12.3120 hc         1 V4T       0.067700
     49 H16         -7.0950    -1.2780    12.8580 hc         1 V4T       0.067700
     50 H17         -5.0000     0.2080    14.5490 h1         1 V4T       0.066700
     51 H18         -9.4540     1.2550    17.0430 hc         1 V4T       0.047700
     52 H19         -7.9230     1.9690    16.5140 hc         1 V4T       0.047700
     53 H20         -9.4580     2.6020    15.8980 hc         1 V4T       0.047700
     54 H21        -12.1520     3.4830    12.6860 ha         1 V4T       0.175500
     55 H22        -10.5580     4.2900    12.1880 ha         1 V4T       0.175500
@<TRIPOS>BOND
     1     1     2 1   
     2     1    34 2   
     3     1    35 1   
     4     2    32 1   
     5     2    33 2   
     6     3    30 1   
     7     3    32 1   
     8     3    36 1   
     9     3    37 1   
    10     4     5 ar  
    11     4     9 ar  
    12     4    24 1   
    13     5     6 ar  
    14     5    15 ar  
    15     6     7 ar  
    16     6    27 ar  
    17     7     8 ar  
    18     7    18 1   
    19     8     9 ar  
    20     8    10 1   
    21     9    23 1   
    22    10    11 ar  
    23    10    19 ar  
    24    11    12 ar  
    25    11    22 1   
    26    12    13 ar  
    27    12    38 1   
    28    13    21 ar  
    29    13    39 1   
    30    14    27 ar  
    31    14    28 ar  
    32    14    40 1   
    33    15    28 ar  
    34    15    29 1   
    35    16    17 1   
    36    16    29 1   
    37    16    41 1   
    38    16    42 1   
    39    17    31 1   
    40    17    32 1   
    41    17    43 1   
    42    19    20 1   
    43    19    21 ar  
    44    21    44 1   
    45    22    45 1   
    46    24    25 1   
    47    25    26 1   
    48    25    46 1   
    49    25    47 1   
    50    26    30 1   
    51    26    48 1   
    52    26    49 1   
    53    29    30 1   
    54    30    50 1   
    55    31    51 1   
    56    31    52 1   
    57    31    53 1   
    58    34    54 1   
    59    34    55 1   
@<TRIPOS>SUBSTRUCTURE
     1 V4T         1 TEMP              0 ****  ****    0 ROOT
