@<TRIPOS>MOLECULE
V4V
   50    53     1     0     0
SMALL
bcc


@<TRIPOS>ATOM
      1 C02         83.8250   113.6640    88.2200 ca         1 V4V       0.684200
      2 C03         83.3460   114.6930    87.3480 ca         1 V4V      -0.293300
      3 C04         83.7860   114.7180    86.0660 ca         1 V4V      -0.047000
      4 C05         84.6980   113.7330    85.6110 ca         1 V4V      -0.195300
      5 C06         85.1990   113.6890    84.2960 ca         1 V4V      -0.089000
      6 C07         86.0710   112.7040    83.9160 ca         1 V4V      -0.147000
      7 C08         86.4810   111.7170    84.8390 ca         1 V4V      -0.071300
      8 C09         87.4500   110.6780    84.3510 c3         1 V4V       0.188700
      9 C11         88.2850   108.5470    84.9810 ca         1 V4V       0.143100
     10 C12         89.1000   108.4490    83.8590 ca         1 V4V      -0.215000
     11 C13         89.8430   107.2880    83.6640 ca         1 V4V      -0.097000
     12 C14         89.7850   106.2370    84.5610 ca         1 V4V      -0.140000
     13 C15         88.9680   106.3350    85.6890 ca         1 V4V      -0.055300
     14 C16         88.9110   105.2140    86.6980 c3         1 V4V       0.213100
     15 C18         87.6390   103.5980    85.4280 c3         1 V4V       0.102500
     16 C19         87.7080   102.3680    84.5610 ca         1 V4V       0.411600
     17 C20         88.9150   101.8730    84.0750 ca         1 V4V      -0.228300
     18 C21         88.8990   100.7600    83.2490 ca         1 V4V      -0.095000
     19 C22         87.6820   100.1770    82.9300 ca         1 V4V      -0.252300
     20 C23         86.5340   100.7420    83.4640 ca         1 V4V       0.405200
     21 C25         88.2230   107.4860    85.8870 ca         1 V4V      -0.160000
     22 C26         86.0080   111.7480    86.1270 ca         1 V4V      -0.157300
     23 C27         85.1070   112.7540    86.5450 ca         1 V4V       0.455600
     24 N01         83.3620   113.6140    89.4930 nv         1 V4V      -0.960500
     25 N17         88.8980   103.9120    86.0640 n7         1 V4V      -0.821200
     26 N24         86.5400   101.8030    84.2600 nb         1 V4V      -0.680000
     27 N28         84.6710   112.7400    87.8270 nb         1 V4V      -0.759000
     28 O10         87.5150   109.6170    85.2730 os         1 V4V      -0.320900
     29 H1          82.6470   115.4310    87.7190 ha         1 V4V       0.138000
     30 H2          83.4440   115.4860    85.3820 ha         1 V4V       0.134000
     31 H3          84.8800   114.4420    83.5850 ha         1 V4V       0.130000
     32 H4          86.4450   112.6740    82.9000 ha         1 V4V       0.130000
     33 H5          87.1300   110.3180    83.3650 h1         1 V4V       0.042200
     34 H6          88.4380   111.1370    84.2150 h1         1 V4V       0.042200
     35 H7          89.1710   109.2480    83.1330 ha         1 V4V       0.133000
     36 H8          90.4770   107.2150    82.7890 ha         1 V4V       0.128000
     37 H9          90.3620   105.3390    84.3890 ha         1 V4V       0.146000
     38 H10         88.0520   105.3780    87.3670 h1         1 V4V       0.040700
     39 H11         89.8020   105.2640    87.3290 h1         1 V4V       0.040700
     40 H12         87.3620   104.4410    84.7850 h1         1 V4V       0.057700
     41 H13         86.8070   103.4800    86.1370 h1         1 V4V       0.057700
     42 H14         89.8440   102.3560    84.3420 ha         1 V4V       0.156000
     43 H15         89.8240   100.3550    82.8600 ha         1 V4V       0.134000
     44 H16         87.6190    99.3090    82.2890 ha         1 V4V       0.140000
     45 H17         85.5620   100.3150    83.2410 h4         1 V4V       0.016100
     46 H18         87.5730   107.5700    86.7510 ha         1 V4V       0.143000
     47 H19         86.3050   111.0060    86.8560 ha         1 V4V       0.162000
     48 H20         83.8480   113.0210    90.1440 hn         1 V4V       0.424800
     49 H21         82.9310   114.4320    89.8880 hn         1 V4V       0.424800
     50 H22         89.1200   103.2020    86.7510 hn         1 V4V       0.361800
@<TRIPOS>BOND
     1     1     2 ar  
     2     1    24 1   
     3     1    27 ar  
     4     2     3 ar  
     5     2    29 1   
     6     3     4 ar  
     7     3    30 1   
     8     4     5 ar  
     9     4    23 ar  
    10     5     6 ar  
    11     5    31 1   
    12     6     7 ar  
    13     6    32 1   
    14     7     8 1   
    15     7    22 ar  
    16     8    28 1   
    17     8    33 1   
    18     8    34 1   
    19     9    10 ar  
    20     9    21 ar  
    21     9    28 1   
    22    10    11 ar  
    23    10    35 1   
    24    11    12 ar  
    25    11    36 1   
    26    12    13 ar  
    27    12    37 1   
    28    13    14 1   
    29    13    21 ar  
    30    14    25 1   
    31    14    38 1   
    32    14    39 1   
    33    15    16 1   
    34    15    25 1   
    35    15    40 1   
    36    15    41 1   
    37    16    17 ar  
    38    16    26 ar  
    39    17    18 ar  
    40    17    42 1   
    41    18    19 ar  
    42    18    43 1   
    43    19    20 ar  
    44    19    44 1   
    45    20    26 ar  
    46    20    45 1   
    47    21    46 1   
    48    22    23 ar  
    49    22    47 1   
    50    23    27 ar  
    51    24    48 1   
    52    24    49 1   
    53    25    50 1   
@<TRIPOS>SUBSTRUCTURE
     1 V4V         1 TEMP              0 ****  ****    0 ROOT
