@<TRIPOS>MOLECULE
V4V
   50    53     1     0     0
SMALL
No Charge or Current Charge


@<TRIPOS>ATOM
      1 C02         83.9230   114.1930    87.8640 ca         1 V4V       0.618900
      2 C03         82.9220   114.3480    86.9040 ca         1 V4V      -0.210000
      3 C04         83.0900   113.7120    85.6660 ca         1 V4V      -0.029000
      4 C05         84.2600   112.9580    85.4670 ca         1 V4V      -0.130000
      5 C06         84.4760   112.3000    84.2420 ca         1 V4V      -0.071000
      6 C07         85.6450   111.5480    84.0450 ca         1 V4V      -0.129000
      7 C08         86.6060   111.4500    85.0680 ca         1 V4V      -0.071300
      8 C09         87.8760   110.6350    84.8590 c3         1 V4V       0.211900
      9 C11         88.6980   108.3980    85.4930 ca         1 V4V       0.143100
     10 C12         89.9410   108.5910    84.8530 ca         1 V4V      -0.197000
     11 C13         90.9080   107.5710    84.8750 ca         1 V4V      -0.079000
     12 C14         90.6380   106.3590    85.5330 ca         1 V4V      -0.122000
     13 C15         89.4010   106.1560    86.1740 ca         1 V4V      -0.055300
     14 C16         89.1100   104.8370    86.8880 c3         1 V4V       0.213100
     15 C18         87.6630   103.9110    85.0480 c3         1 V4V       0.102500
     16 C19         87.4090   102.7130    84.1170 ca         1 V4V       0.346300
     17 C20         87.8710   102.7280    82.7860 ca         1 V4V      -0.145000
     18 C21         87.6280   101.6200    81.9590 ca         1 V4V      -0.077000
     19 C22         86.9280   100.5320    82.5040 ca         1 V4V      -0.169000
     20 C23         86.5020   100.5910    83.8420 ca         1 V4V       0.339900
     21 C25         88.4370   107.1840    86.1490 ca         1 V4V      -0.142000
     22 C26         86.3820   112.1100    86.2920 ca         1 V4V      -0.074000
     23 C27         85.2180   112.8690    86.5130 ca         1 V4V       0.325000
     24 N01         83.8860   114.7530    89.0740 nv         1 V4V      -1.070900
     25 N17         88.8530   103.7360    85.9330 n7         1 V4V      -0.876400
     26 N24         86.7330   101.6570    84.6420 nb         1 V4V      -0.680000
     27 N28         85.0360   113.4920    87.7020 nb         1 V4V      -0.759000
     28 O10         87.7100   109.3610    85.5040 os         1 V4V      -0.344100
     29 H1          82.0380   114.9420    87.1120 ha         1 V4V       0.120000
     30 H2          82.3350   113.8030    84.8880 ha         1 V4V       0.116000
     31 H3          83.7400   112.3690    83.4440 ha         1 V4V       0.112000
     32 H4          85.8020   111.0410    83.0950 ha         1 V4V       0.112000
     33 H5          88.0580   110.5040    83.7850 h1         1 V4V       0.042200
     34 H6          88.7280   111.1780    85.2880 h1         1 V4V       0.042200
     35 H7          90.1750   109.5180    84.3360 ha         1 V4V       0.115000
     36 H8          91.8660   107.7180    84.3810 ha         1 V4V       0.110000
     37 H9          91.3890   105.5720    85.5420 ha         1 V4V       0.128000
     38 H10         88.2500   104.9680    87.5600 h1         1 V4V       0.040700
     39 H11         89.9730   104.5880    87.5210 h1         1 V4V       0.040700
     40 H12         87.7790   104.8080    84.4250 h1         1 V4V       0.057700
     41 H13         86.7600   104.0680    85.6550 h1         1 V4V       0.057700
     42 H14         88.4140   103.5900    82.4070 ha         1 V4V       0.138000
     43 H15         87.9730   101.6040    80.9270 ha         1 V4V       0.116000
     44 H16         86.7150    99.6510    81.9040 ha         1 V4V       0.122000
     45 H17         85.9580    99.7590    84.2880 h4         1 V4V       0.016100
     46 H18         87.4770   107.0400    86.6380 ha         1 V4V       0.125000
     47 H19         87.1190   112.0340    87.0870 ha         1 V4V       0.144000
     48 H20         84.7750   114.7530    89.5580 hn         1 V4V       0.480000
     49 H21         83.3110   115.5800    89.1880 hn         1 V4V       0.480000
     50 H22         88.7100   102.8750    86.4770 hn         1 V4V       0.417000
@<TRIPOS>BOND
     1     1     2 ar  
     2     1    24 1   
     3     1    27 ar  
     4     2     3 ar  
     5     2    29 1   
     6     3     4 ar  
     7     3    30 1   
     8     4     5 ar  
     9     4    23 ar  
    10     5     6 ar  
    11     5    31 1   
    12     6     7 ar  
    13     6    32 1   
    14     7     8 1   
    15     7    22 ar  
    16     8    28 1   
    17     8    33 1   
    18     8    34 1   
    19     9    10 ar  
    20     9    21 ar  
    21     9    28 1   
    22    10    11 ar  
    23    10    35 1   
    24    11    12 ar  
    25    11    36 1   
    26    12    13 ar  
    27    12    37 1   
    28    13    14 1   
    29    13    21 ar  
    30    14    25 1   
    31    14    38 1   
    32    14    39 1   
    33    15    16 1   
    34    15    25 1   
    35    15    40 1   
    36    15    41 1   
    37    16    17 ar  
    38    16    26 ar  
    39    17    18 ar  
    40    17    42 1   
    41    18    19 ar  
    42    18    43 1   
    43    19    20 ar  
    44    19    44 1   
    45    20    26 ar  
    46    20    45 1   
    47    21    46 1   
    48    22    23 ar  
    49    22    47 1   
    50    23    27 ar  
    51    24    48 1   
    52    24    49 1   
    53    25    50 1   
@<TRIPOS>SUBSTRUCTURE
     1 V4V         1 TEMP              0 ****  ****    0 ROOT
