@<TRIPOS>MOLECULE
V4W
   19    18     1     0     0
SMALL
No Charge or Current Charge


@<TRIPOS>ATOM
      1 O1           4.3920    -6.6660    18.8490 o          1 V4W      -0.536100
      2 O2           7.1920    -8.1590    19.4450 oh         1 V4W      -0.617000
      3 C1           5.3140    -6.5520    19.6550 c          1 V4W       0.562900
      4 C2           6.0660    -7.7620    20.2720 c3         1 V4W       0.054300
      5 C3           6.5270    -7.4620    21.7320 c3         1 V4W       0.184300
      6 C4           6.9190    -8.7080    22.5690 c3         1 V4W      -0.209400
      7 C5           8.0630    -9.5350    21.9450 c          1 V4W       0.450100
      8 C6           9.5810    -8.9850    22.1420 c          1 V4W       0.657000
      9 O3           5.4590    -6.8200    22.4430 oh         1 V4W      -0.687000
     10 O5           7.8080   -10.5700    21.3200 o          1 V4W      -0.569100
     11 O6A          9.7470    -7.8620    22.6140 o          1 V4W      -0.702500
     12 O6B         10.5180    -9.7160    21.8270 o          1 V4W      -0.702500
     13 H2           5.6720    -5.5470    19.9720 h4         1 V4W      -0.011800
     14 H3           5.3360    -8.5810    20.3180 h1         1 V4W       0.055700
     15 H4           7.3950    -6.7870    21.6780 h1         1 V4W       0.085700
     16 H5           7.2730    -8.3210    23.5320 hc         1 V4W       0.047200
     17 H6           6.0390    -9.3470    22.7140 hc         1 V4W       0.047200
     18 H7           5.7680    -6.6860    23.3670 ho         1 V4W       0.448000
     19 H1           6.8340    -8.4880    18.5890 ho         1 V4W       0.443000
@<TRIPOS>BOND
     1     1     3 2   
     2     2     4 1   
     3     2    19 1   
     4     3     4 1   
     5     3    13 1   
     6     4     5 1   
     7     4    14 1   
     8     5     6 1   
     9     5     9 1   
    10     5    15 1   
    11     6     7 1   
    12     6    16 1   
    13     6    17 1   
    14     7     8 1   
    15     7    10 2   
    16     8    11 1   
    17     8    12 1   
    18     9    18 1   
@<TRIPOS>SUBSTRUCTURE
     1 V4W         1 TEMP              0 ****  ****    0 ROOT
