@<TRIPOS>MOLECULE
V4W
   19    18     1     0     0
SMALL
abcg2


@<TRIPOS>ATOM
      1 O1           4.4010    -6.3610    19.3620 o          1 V4W      -0.536100
      2 O2           7.2420    -8.1930    19.6600 oh         1 V4W      -0.617000
      3 C1           5.5420    -6.5260    19.7060 c          1 V4W       0.562900
      4 C2           6.0790    -7.7930    20.3420 c3         1 V4W       0.054300
      5 C3           6.4830    -7.5090    21.7850 c3         1 V4W       0.184300
      6 C4           6.8620    -8.7990    22.5170 c3         1 V4W      -0.209400
      7 C5           8.0580    -9.5360    21.9580 c          1 V4W       0.450100
      8 C6           9.4140    -8.7850    21.9180 c          1 V4W       0.657000
      9 O3           5.3750    -6.8800    22.3860 oh         1 V4W      -0.687000
     10 O5           7.9850   -10.7010    21.6370 o          1 V4W      -0.569100
     11 O6A          9.5100    -7.8360    22.7180 o          1 V4W      -0.702500
     12 O6B         10.2560    -9.2230    21.1240 o          1 V4W      -0.702500
     13 H2           6.3130    -5.7470    19.5510 h4         1 V4W      -0.011800
     14 H3           5.2930    -8.5590    20.3210 h1         1 V4W       0.055700
     15 H4           7.3510    -6.8400    21.7710 h1         1 V4W       0.085700
     16 H5           7.0990    -8.5340    23.5530 hc         1 V4W       0.047200
     17 H6           5.9990    -9.4690    22.5340 hc         1 V4W       0.047200
     18 H7           5.6450    -6.5400    23.2450 ho         1 V4W       0.448000
     19 H1           6.9960    -8.7260    18.8970 ho         1 V4W       0.443000
@<TRIPOS>BOND
     1     1     3 2   
     2     2     4 1   
     3     2    19 1   
     4     3     4 1   
     5     3    13 1   
     6     4     5 1   
     7     4    14 1   
     8     5     6 1   
     9     5     9 1   
    10     5    15 1   
    11     6     7 1   
    12     6    16 1   
    13     6    17 1   
    14     7     8 1   
    15     7    10 2   
    16     8    11 1   
    17     8    12 1   
    18     9    18 1   
@<TRIPOS>SUBSTRUCTURE
     1 V4W         1 TEMP              0 ****  ****    0 ROOT
