@<TRIPOS>MOLECULE
V4X
   21    21     1     0     0
SMALL
abcg2


@<TRIPOS>ATOM
      1 N1          -4.6640    16.6230   -35.7810 n1         1 V4X      -0.434000
      2 C1           1.8340    14.0540   -37.2060 c6         1 V4X       0.045100
      3 C5          -2.9220    14.7610   -36.3020 c3         1 V4X      -0.094300
      4 C6          -3.8840    15.8120   -36.0160 c1         1 V4X       0.309900
      5 C4          -1.6040    15.3460   -36.8330 c          1 V4X       0.608100
      6 C3          -0.6710    13.0360   -36.8290 c6         1 V4X       0.103000
      7 C2           0.0980    12.6110   -35.5820 c6         1 V4X       0.045100
      8 O           -1.4980    16.5530   -37.0420 o          1 V4X      -0.577100
      9 N           -0.6030    14.4770   -37.0520 n          1 V4X      -0.417800
     10 C            0.6920    15.0210   -37.4930 c6         1 V4X       0.103000
     11 S            1.7570    13.4040   -35.5060 ss         1 V4X      -0.424000
     12 H1           1.8620    13.2280   -37.9150 h1         1 V4X       0.076950
     13 H2           2.7810    14.5860   -37.2830 h1         1 V4X       0.076950
     14 H3          -2.7570    14.1830   -35.3900 hc         1 V4X       0.084700
     15 H4          -3.3590    14.0830   -37.0400 hc         1 V4X       0.084700
     16 H5          -1.7050    12.7180   -36.7380 h1         1 V4X       0.064200
     17 H6          -0.2730    12.5360   -37.7120 h1         1 V4X       0.064200
     18 H7          -0.4370    12.9140   -34.6830 h1         1 V4X       0.076950
     19 H8           0.2090    11.5270   -35.5770 h1         1 V4X       0.076950
     20 H9           0.8570    15.9570   -36.9650 h1         1 V4X       0.064200
     21 H10          0.6540    15.2400   -38.5650 h1         1 V4X       0.064200
@<TRIPOS>BOND
     1     1     4 3   
     2     2    10 1   
     3     2    11 1   
     4     2    12 1   
     5     2    13 1   
     6     3     4 1   
     7     3     5 1   
     8     3    14 1   
     9     3    15 1   
    10     5     8 2   
    11     5     9 1   
    12     6     7 1   
    13     6     9 1   
    14     6    16 1   
    15     6    17 1   
    16     7    11 1   
    17     7    18 1   
    18     7    19 1   
    19     9    10 1   
    20    10    20 1   
    21    10    21 1   
@<TRIPOS>SUBSTRUCTURE
     1 V4X         1 TEMP              0 ****  ****    0 ROOT
