@<TRIPOS>MOLECULE
V4X
   21    21     1     0     0
SMALL
No Charge or Current Charge


@<TRIPOS>ATOM
      1 N1          -4.1890    15.2710   -34.7600 n1         1 V4X      -0.434000
      2 C1           1.8440    13.9170   -37.4030 c6         1 V4X       0.045100
      3 C5          -3.1940    14.6960   -37.1190 c3         1 V4X      -0.094300
      4 C6          -3.7450    15.0330   -35.8100 c1         1 V4X       0.309900
      5 C4          -1.7880    15.2740   -37.2810 c          1 V4X       0.608100
      6 C3          -0.6860    13.1900   -36.2680 c6         1 V4X       0.103000
      7 C2           0.3670    13.1630   -35.1330 c6         1 V4X       0.045100
      8 O           -1.6460    16.4410   -37.6250 o          1 V4X      -0.577100
      9 N           -0.6520    14.4500   -37.0820 n          1 V4X      -0.417800
     10 C            0.7070    14.9680   -37.4380 c6         1 V4X       0.103000
     11 S            2.1210    13.1750   -35.7290 ss         1 V4X      -0.424000
     12 H1           1.6080    13.1040   -38.1040 h1         1 V4X       0.076950
     13 H2           2.7860    14.3770   -37.7330 h1         1 V4X       0.076950
     14 H3          -3.1930    13.6070   -37.2160 hc         1 V4X       0.084700
     15 H4          -3.8500    15.1360   -37.8760 hc         1 V4X       0.084700
     16 H5          -1.6650    13.0550   -35.7940 h1         1 V4X       0.064200
     17 H6          -0.5310    12.3260   -36.9320 h1         1 V4X       0.064200
     18 H7           0.2210    14.0390   -34.4850 h1         1 V4X       0.076950
     19 H8           0.2240    12.2650   -34.5160 h1         1 V4X       0.076950
     20 H9           0.9630    15.7900   -36.7540 h1         1 V4X       0.064200
     21 H10          0.6670    15.3950   -38.4500 h1         1 V4X       0.064200
@<TRIPOS>BOND
     1     1     4 3   
     2     2    10 1   
     3     2    11 1   
     4     2    12 1   
     5     2    13 1   
     6     3     4 1   
     7     3     5 1   
     8     3    14 1   
     9     3    15 1   
    10     5     8 2   
    11     5     9 1   
    12     6     7 1   
    13     6     9 1   
    14     6    16 1   
    15     6    17 1   
    16     7    11 1   
    17     7    18 1   
    18     7    19 1   
    19     9    10 1   
    20    10    20 1   
    21    10    21 1   
@<TRIPOS>SUBSTRUCTURE
     1 V4X         1 TEMP              0 ****  ****    0 ROOT
