@<TRIPOS>MOLECULE
V4Y
   58    61     1     0     0
SMALL
abcg2


@<TRIPOS>ATOM
      1 C02         86.9030    98.7610    84.2300 ca         1 V4Y       0.598900
      2 C03         86.0950    98.4500    83.1220 ca         1 V4Y      -0.233000
      3 C04         85.5020    99.4880    82.4410 ca         1 V4Y      -0.035000
      4 C05         85.7150   100.8010    82.8550 ca         1 V4Y      -0.213000
      5 C06         86.5250   101.0140    83.9600 ca         1 V4Y       0.401300
      6 C07         86.8290   102.4010    84.4470 c3         1 V4Y      -0.126700
      7 C08         88.2630   102.8210    84.1230 c3         1 V4Y      -0.075400
      8 C09         88.5770   104.2160    84.6360 c3         1 V4Y       0.155800
      9 C11         90.2880   105.9220    84.8030 c3         1 V4Y       0.207100
     10 C12         89.6360   106.9900    83.9610 ca         1 V4Y      -0.050300
     11 C13         89.8680   107.0370    82.5850 ca         1 V4Y      -0.121000
     12 C14         89.2580   108.0130    81.8190 ca         1 V4Y      -0.080000
     13 C15         88.4020   108.9520    82.3900 ca         1 V4Y      -0.199000
     14 C16         88.1650   108.9050    83.7590 ca         1 V4Y       0.138100
     15 C18         86.6100   110.7040    83.6780 c3         1 V4Y       0.209900
     16 C19         85.7310   111.4430    84.6410 ca         1 V4Y      -0.072300
     17 C20         86.2980   112.3960    85.5130 ca         1 V4Y      -0.106000
     18 C21         85.5080   113.0660    86.4100 ca         1 V4Y      -0.078000
     19 C22         84.1250   112.8110    86.4760 ca         1 V4Y      -0.123000
     20 C23         83.2540   113.4710    87.3810 ca         1 V4Y      -0.030000
     21 C24         81.9310   113.1760    87.3830 ca         1 V4Y      -0.208000
     22 C25         81.4410   112.1930    86.4640 ca         1 V4Y       0.619900
     23 C28         83.5440   111.8570    85.6080 ca         1 V4Y       0.322000
     24 C29         84.3840   111.1810    84.6950 ca         1 V4Y      -0.080000
     25 C30         88.7900   107.9230    84.5350 ca         1 V4Y      -0.144000
     26 N01         87.5540    97.7790    84.9200 nv         1 V4Y      -1.056900
     27 N10         89.9440   104.5930    84.3320 n7         1 V4Y      -0.861400
     28 N26         80.1140   111.9250    86.4370 nv         1 V4Y      -1.071900
     29 N27         82.2230   111.5630    85.6190 nb         1 V4Y      -0.760000
     30 N31         87.1010   100.0140    84.6290 nb         1 V4Y      -0.754000
     31 O17         87.3480   109.7480    84.4240 os         1 V4Y      -0.344100
     32 H1          85.9460    97.4200    82.8220 ha         1 V4Y       0.119000
     33 H2          84.8710    99.2810    81.5850 ha         1 V4Y       0.114000
     34 H3          85.2600   101.6340    82.3360 ha         1 V4Y       0.124000
     35 H4          86.1300   103.1110    84.0000 hc         1 V4Y       0.052200
     36 H5          86.6780   102.4430    85.5300 hc         1 V4Y       0.052200
     37 H6          88.9560   102.0990    84.5650 hc         1 V4Y       0.054200
     38 H7          88.4210   102.7890    83.0410 hc         1 V4Y       0.054200
     39 H8          87.9050   104.9340    84.1570 h1         1 V4Y       0.031700
     40 H9          88.3590   104.2680    85.7160 h1         1 V4Y       0.031700
     41 H10         91.3740   106.0290    84.7370 h1         1 V4Y       0.036700
     42 H11         90.0200   106.0840    85.8590 h1         1 V4Y       0.036700
     43 H12         90.5210   106.3090    82.1220 ha         1 V4Y       0.125000
     44 H13         89.4420   108.0550    80.7530 ha         1 V4Y       0.110000
     45 H14         87.9390   109.6960    81.7570 ha         1 V4Y       0.114000
     46 H15         86.0040   110.2120    82.9100 h1         1 V4Y       0.042200
     47 H16         87.2910   111.3990    83.1720 h1         1 V4Y       0.042200
     48 H17         87.3600   112.6040    85.4630 ha         1 V4Y       0.119000
     49 H18         85.9390   113.8020    87.0780 ha         1 V4Y       0.113000
     50 H19         83.6550   114.2090    88.0660 ha         1 V4Y       0.117000
     51 H20         81.2460   113.6660    88.0630 ha         1 V4Y       0.120000
     52 H21         83.9380   110.4500    84.0320 ha         1 V4Y       0.129000
     53 H22         88.5910   107.8910    85.6010 ha         1 V4Y       0.123000
     54 H23         87.8840    98.0260    85.8380 hn         1 V4Y       0.468000
     55 H24         87.1950    96.8420    84.8490 hn         1 V4Y       0.468000
     56 H25         90.5730   103.9250    84.7600 hn         1 V4Y       0.410000
     57 H27         79.8110   111.1040    85.9400 hn         1 V4Y       0.480500
     58 H28         79.5430   112.1970    87.2180 hn         1 V4Y       0.480500
@<TRIPOS>BOND
     1     1     2 ar  
     2     1    26 1   
     3     1    30 ar  
     4     2     3 ar  
     5     2    32 1   
     6     3     4 ar  
     7     3    33 1   
     8     4     5 ar  
     9     4    34 1   
    10     5     6 1   
    11     5    30 ar  
    12     6     7 1   
    13     6    35 1   
    14     6    36 1   
    15     7     8 1   
    16     7    37 1   
    17     7    38 1   
    18     8    27 1   
    19     8    39 1   
    20     8    40 1   
    21     9    10 1   
    22     9    27 1   
    23     9    41 1   
    24     9    42 1   
    25    10    11 ar  
    26    10    25 ar  
    27    11    12 ar  
    28    11    43 1   
    29    12    13 ar  
    30    12    44 1   
    31    13    14 ar  
    32    13    45 1   
    33    14    25 ar  
    34    14    31 1   
    35    15    16 1   
    36    15    31 1   
    37    15    46 1   
    38    15    47 1   
    39    16    17 ar  
    40    16    24 ar  
    41    17    18 ar  
    42    17    48 1   
    43    18    19 ar  
    44    18    49 1   
    45    19    20 ar  
    46    19    23 ar  
    47    20    21 ar  
    48    20    50 1   
    49    21    22 ar  
    50    21    51 1   
    51    22    28 1   
    52    22    29 ar  
    53    23    24 ar  
    54    23    29 ar  
    55    24    52 1   
    56    25    53 1   
    57    26    54 1   
    58    26    55 1   
    59    27    56 1   
    60    28    57 1   
    61    28    58 1   
@<TRIPOS>SUBSTRUCTURE
     1 V4Y         1 TEMP              0 ****  ****    0 ROOT
