@<TRIPOS>MOLECULE
V4Y
   58    61     1     0     0
SMALL
No Charge or Current Charge


@<TRIPOS>ATOM
      1 C02         86.0410    99.0660    84.6150 ca         1 V4Y       0.598900
      2 C03         85.7930    98.6310    83.3110 ca         1 V4Y      -0.233000
      3 C04         85.8850    99.5650    82.2700 ca         1 V4Y      -0.035000
      4 C05         86.2210   100.8850    82.6100 ca         1 V4Y      -0.213000
      5 C06         86.4460   101.2150    83.9610 ca         1 V4Y       0.401300
      6 C07         86.8160   102.6360    84.3620 c3         1 V4Y      -0.126700
      7 C08         88.3090   102.9540    84.1140 c3         1 V4Y      -0.075400
      8 C09         88.6900   104.3950    84.5050 c3         1 V4Y       0.155800
      9 C11         90.6180   105.9860    84.5750 c3         1 V4Y       0.207100
     10 C12         89.9280   107.0790    83.7610 ca         1 V4Y      -0.050300
     11 C13         90.2500   107.2620    82.4020 ca         1 V4Y      -0.121000
     12 C14         89.6170   108.2660    81.6510 ca         1 V4Y      -0.080000
     13 C15         88.6570   109.0980    82.2520 ca         1 V4Y      -0.199000
     14 C16         88.3270   108.9230    83.6140 ca         1 V4Y       0.138100
     15 C18         86.6850   110.7620    83.5880 c3         1 V4Y       0.209900
     16 C19         85.7380   111.4170    84.5840 ca         1 V4Y      -0.072300
     17 C20         86.1330   112.5680    85.2900 ca         1 V4Y      -0.106000
     18 C21         85.2580   113.1690    86.2090 ca         1 V4Y      -0.078000
     19 C22         83.9810   112.6200    86.4290 ca         1 V4Y      -0.123000
     20 C23         83.1030   113.2200    87.3500 ca         1 V4Y      -0.030000
     21 C24         81.8430   112.6350    87.5320 ca         1 V4Y      -0.208000
     22 C25         81.5330   111.4950    86.7890 ca         1 V4Y       0.619900
     23 C28         83.5650   111.4570    85.7260 ca         1 V4Y       0.322000
     24 C29         84.4580   110.8710    84.8100 ca         1 V4Y      -0.080000
     25 C30         88.9650   107.9160    84.3580 ca         1 V4Y      -0.144000
     26 N01         85.9740    98.2710    85.6840 nv         1 V4Y      -1.056900
     27 N10         90.1190   104.6360    84.2310 n7         1 V4Y      -0.861400
     28 N26         80.3750   110.8410    86.8780 nv         1 V4Y      -1.071900
     29 N27         82.3410   110.9070    85.9180 nb         1 V4Y      -0.760000
     30 N31         86.3550   100.3070    84.9590 nb         1 V4Y      -0.754000
     31 O17         87.3930   109.7060    84.2590 os         1 V4Y      -0.344100
     32 H1          85.5370    97.5950    83.1100 ha         1 V4Y       0.119000
     33 H2          85.7040    99.2780    81.2360 ha         1 V4Y       0.114000
     34 H3          86.3070   101.6470    81.8400 ha         1 V4Y       0.124000
     35 H4          86.2000   103.3460    83.7960 hc         1 V4Y       0.052200
     36 H5          86.5840   102.8080    85.4210 hc         1 V4Y       0.052200
     37 H6          88.9250   102.2470    84.6840 hc         1 V4Y       0.054200
     38 H7          88.5380   102.7970    83.0520 hc         1 V4Y       0.054200
     39 H8          88.0640   105.0940    83.9320 h1         1 V4Y       0.031700
     40 H9          88.4720   104.5480    85.5720 h1         1 V4Y       0.031700
     41 H10         91.6980   106.0430    84.3850 h1         1 V4Y       0.036700
     42 H11         90.4730   106.1840    85.6470 h1         1 V4Y       0.036700
     43 H12         90.9890   106.6190    81.9290 ha         1 V4Y       0.125000
     44 H13         89.8710   108.3990    80.6010 ha         1 V4Y       0.110000
     45 H14         88.1830   109.8660    81.6480 ha         1 V4Y       0.114000
     46 H15         86.1060   110.3640    82.7440 h1         1 V4Y       0.042200
     47 H16         87.3850   111.5120    83.1990 h1         1 V4Y       0.042200
     48 H17         87.1200   112.9970    85.1290 ha         1 V4Y       0.119000
     49 H18         85.5750   114.0580    86.7500 ha         1 V4Y       0.113000
     50 H19         83.3890   114.1110    87.9060 ha         1 V4Y       0.117000
     51 H20         81.1260   113.0570    88.2300 ha         1 V4Y       0.120000
     52 H21         84.1510   109.9800    84.2700 ha         1 V4Y       0.129000
     53 H22         88.7060   107.7850    85.4050 ha         1 V4Y       0.123000
     54 H23         85.9400    98.7580    86.5710 hn         1 V4Y       0.468000
     55 H24         85.4200    97.4260    85.6080 hn         1 V4Y       0.468000
     56 H25         90.6640   103.9560    84.7750 hn         1 V4Y       0.410000
     57 H27         80.3900   109.9150    86.4710 hn         1 V4Y       0.480500
     58 H28         79.8440   110.9470    87.7350 hn         1 V4Y       0.480500
@<TRIPOS>BOND
     1     1     2 ar  
     2     1    26 1   
     3     1    30 ar  
     4     2     3 ar  
     5     2    32 1   
     6     3     4 ar  
     7     3    33 1   
     8     4     5 ar  
     9     4    34 1   
    10     5     6 1   
    11     5    30 ar  
    12     6     7 1   
    13     6    35 1   
    14     6    36 1   
    15     7     8 1   
    16     7    37 1   
    17     7    38 1   
    18     8    27 1   
    19     8    39 1   
    20     8    40 1   
    21     9    10 1   
    22     9    27 1   
    23     9    41 1   
    24     9    42 1   
    25    10    11 ar  
    26    10    25 ar  
    27    11    12 ar  
    28    11    43 1   
    29    12    13 ar  
    30    12    44 1   
    31    13    14 ar  
    32    13    45 1   
    33    14    25 ar  
    34    14    31 1   
    35    15    16 1   
    36    15    31 1   
    37    15    46 1   
    38    15    47 1   
    39    16    17 ar  
    40    16    24 ar  
    41    17    18 ar  
    42    17    48 1   
    43    18    19 ar  
    44    18    49 1   
    45    19    20 ar  
    46    19    23 ar  
    47    20    21 ar  
    48    20    50 1   
    49    21    22 ar  
    50    21    51 1   
    51    22    28 1   
    52    22    29 ar  
    53    23    24 ar  
    54    23    29 ar  
    55    24    52 1   
    56    25    53 1   
    57    26    54 1   
    58    26    55 1   
    59    27    56 1   
    60    28    57 1   
    61    28    58 1   
@<TRIPOS>SUBSTRUCTURE
     1 V4Y         1 TEMP              0 ****  ****    0 ROOT
