@<TRIPOS>MOLECULE
V4Z
   46    48     1     0     0
SMALL
No Charge or Current Charge


@<TRIPOS>ATOM
      1 C1           2.9420     6.0230    -0.4940 c3         1 V4Z      -0.105100
      2 C2           3.6710     4.7350    -0.0680 c3         1 V4Z       0.180300
      3 C3           3.9330     4.6860     1.4540 c3         1 V4Z      -0.105100
      4 O1           2.8090     3.6340    -0.4200 os         1 V4Z      -0.454300
      5 C4           3.2650     2.3430    -0.4180 cc         1 V4Z       0.508300
      6 C5           2.4040     1.2620    -0.2700 cc         1 V4Z      -0.244000
      7 C6           3.2000     0.1670    -0.3420 cd         1 V4Z       0.264000
      8 N1           2.8800    -1.1670    -0.2570 nu         1 V4Z      -0.927900
      9 C7           1.6910    -1.8730    -0.0680 ca         1 V4Z       0.448900
     10 N2           0.5530    -1.1750     0.0730 nb         1 V4Z      -0.302000
     11 C8          -0.5660    -1.8890     0.2540 ca         1 V4Z       0.431900
     12 N3          -1.7200    -1.1390     0.3880 nu         1 V4Z      -0.908100
     13 C9          -3.1100    -1.6000     0.6250 c3         1 V4Z       0.207200
     14 C10         -3.2770    -1.9910     2.1090 c3         1 V4Z      -0.112100
     15 C11         -4.1620    -0.5410     0.2060 ca         1 V4Z       0.321300
     16 C12         -5.4610    -0.9440    -0.1740 ca         1 V4Z      -0.126000
     17 C13         -6.4100     0.0260    -0.5490 ca         1 V4Z      -0.111000
     18 C14         -6.0200     1.3740    -0.5310 ca         1 V4Z       0.119000
     19 F1          -6.8980     2.3410    -0.8840 f          1 V4Z      -0.166000
     20 C15         -4.7060     1.7020    -0.1400 ca         1 V4Z       0.316900
     21 N4          -3.7860     0.7710     0.2230 nb         1 V4Z      -0.663000
     22 N5          -0.6740    -3.2280     0.3050 nb         1 V4Z      -0.277000
     23 C16          0.4690    -3.9260     0.1650 ca         1 V4Z       0.193900
     24 C17          1.7010    -3.2810    -0.0270 ca         1 V4Z      -0.135000
     25 Cl1          3.1880    -4.2210    -0.2090 cl         1 V4Z      -0.191000
     26 N6           4.5010     0.6610    -0.5380 na         1 V4Z      -0.056200
     27 N7           4.5390     2.0640    -0.5930 nd         1 V4Z      -0.603800
     28 H11C         3.5460     6.9040    -0.2500 hc         1 V4Z       0.044700
     29 H12C         2.7630     6.0230    -1.5760 hc         1 V4Z       0.044700
     30 H13C         1.9760     6.1140     0.0180 hc         1 V4Z       0.044700
     31 H2           4.6260     4.6840    -0.6100 h1         1 V4Z       0.058700
     32 H31C         4.5240     5.5560     1.7670 hc         1 V4Z       0.044700
     33 H32C         2.9900     4.6940     2.0130 hc         1 V4Z       0.044700
     34 H33C         4.4930     3.7850     1.7290 hc         1 V4Z       0.044700
     35 H5           1.3350     1.3250    -0.1300 ha         1 V4Z       0.176000
     36 H1           3.6800    -1.7950    -0.3490 hn         1 V4Z       0.513000
     37 H6           5.3400     0.0970    -0.6380 hn         1 V4Z       0.368000
     38 H3          -1.6070    -0.1290     0.2790 hn         1 V4Z       0.533000
     39 H9          -3.3010    -2.4930     0.0130 h1         1 V4Z       0.082700
     40 H101        -3.1010    -1.1270     2.7610 hc         1 V4Z       0.050033
     41 H102        -4.2930    -2.3590     2.2960 hc         1 V4Z       0.050033
     42 H103        -2.5750    -2.7840     2.3900 hc         1 V4Z       0.050033
     43 H12         -5.7270    -1.9980    -0.1740 ha         1 V4Z       0.132000
     44 H13         -7.4170    -0.2580    -0.8460 ha         1 V4Z       0.140000
     45 H15         -4.3800     2.7410    -0.1180 h4         1 V4Z       0.041100
     46 H16          0.3940    -5.0110     0.2060 h4         1 V4Z       0.031100
@<TRIPOS>BOND
     1     1     2 1   
     2     1    28 1   
     3     1    29 1   
     4     1    30 1   
     5     2     3 1   
     6     2     4 1   
     7     2    31 1   
     8     3    32 1   
     9     3    33 1   
    10     3    34 1   
    11     4     5 1   
    12     5     6 1   
    13     5    27 2   
    14     6     7 2   
    15     6    35 1   
    16     7     8 1   
    17     7    26 1   
    18     8     9 1   
    19     8    36 1   
    20     9    10 ar  
    21     9    24 ar  
    22    10    11 ar  
    23    11    12 1   
    24    11    22 ar  
    25    12    13 1   
    26    12    38 1   
    27    13    14 1   
    28    13    15 1   
    29    13    39 1   
    30    14    40 1   
    31    14    41 1   
    32    14    42 1   
    33    15    16 ar  
    34    15    21 ar  
    35    16    17 ar  
    36    16    43 1   
    37    17    18 ar  
    38    17    44 1   
    39    18    19 1   
    40    18    20 ar  
    41    20    21 ar  
    42    20    45 1   
    43    22    23 ar  
    44    23    24 ar  
    45    23    46 1   
    46    24    25 1   
    47    26    27 1   
    48    26    37 1   
@<TRIPOS>SUBSTRUCTURE
     1 V4Z         1 TEMP              0 ****  ****    0 ROOT
