@<TRIPOS>MOLECULE
V4Z
   46    48     1     0     0
SMALL
bcc


@<TRIPOS>ATOM
      1 C1           2.9610     5.9150    -0.6980 c3         1 V4Z      -0.105100
      2 C2           3.6220     4.6830    -0.1170 c3         1 V4Z       0.157100
      3 C3           4.1110     4.9110     1.3030 c3         1 V4Z      -0.105100
      4 O1           2.6360     3.6400    -0.1500 os         1 V4Z      -0.431100
      5 C4           3.0540     2.3730    -0.1280 cc         1 V4Z       0.573600
      6 C5           2.1730     1.2700    -0.1120 cc         1 V4Z      -0.327300
      7 C6           3.0270     0.1850    -0.1200 cd         1 V4Z       0.176300
      8 N1           2.8390    -1.1790    -0.1330 nu         1 V4Z      -0.734300
      9 C7           1.6580    -1.8410    -0.0440 ca         1 V4Z       0.777200
     10 N2           0.5410    -1.1580     0.0960 nb         1 V4Z      -0.828000
     11 C8          -0.6100    -1.8380     0.1810 ca         1 V4Z       0.957900
     12 N3          -1.7210    -1.0990     0.3160 nu         1 V4Z      -0.852900
     13 C9          -3.0430    -1.6430     0.5070 c3         1 V4Z       0.207200
     14 C10         -3.2680    -2.1380     1.9380 c3         1 V4Z      -0.112100
     15 C11         -4.0650    -0.5830     0.1640 ca         1 V4Z       0.386600
     16 C12         -5.3440    -0.9440    -0.2470 ca         1 V4Z      -0.209300
     17 C13         -6.2790     0.0450    -0.4960 ca         1 V4Z      -0.129000
     18 C14         -5.8800     1.3550    -0.3210 ca         1 V4Z       0.018600
     19 F1          -6.7410     2.3540    -0.5480 f          1 V4Z      -0.130900
     20 C15         -4.5930     1.6460     0.0820 ca         1 V4Z       0.382200
     21 N4          -3.7100     0.6850     0.3200 nb         1 V4Z      -0.663000
     22 N5          -0.7330    -3.1670     0.1310 nb         1 V4Z      -0.803000
     23 C16          0.3950    -3.8480    -0.0120 ca         1 V4Z       0.522200
     24 C17          1.6280    -3.2510    -0.1020 ca         1 V4Z      -0.357200
     25 CL1          3.0700    -4.1860    -0.2820 cl         1 V4Z      -0.099400
     26 N6           4.2810     0.6710    -0.1360 na         1 V4Z      -0.056600
     27 N7           4.3170     2.0180    -0.1370 nd         1 V4Z      -0.603800
     28 H11C         3.6710     6.7420    -0.7130 hc         1 V4Z       0.044700
     29 H12C         2.6280     5.7450    -1.7230 hc         1 V4Z       0.044700
     30 H13C         2.1010     6.2240    -0.1010 hc         1 V4Z       0.044700
     31 H2           4.4660     4.3950    -0.7500 h1         1 V4Z       0.058700
     32 H31C         4.8730     5.6910     1.3120 hc         1 V4Z       0.044700
     33 H32C         3.2930     5.2340     1.9500 hc         1 V4Z       0.044700
     34 H33C         4.5560     4.0110     1.7260 hc         1 V4Z       0.044700
     35 H5           1.1000     1.2730    -0.1020 ha         1 V4Z       0.194000
     36 H1           3.6700    -1.7440    -0.2280 hn         1 V4Z       0.457800
     37 H6           5.1430     0.1520    -0.1150 hn         1 V4Z       0.317700
     38 H3          -1.6130    -0.1010     0.4190 hn         1 V4Z       0.477800
     39 H9          -3.1750    -2.4840    -0.1770 h1         1 V4Z       0.082700
     40 H101        -3.1590    -1.3190     2.6500 hc         1 V4Z       0.050033
     41 H102        -4.2680    -2.5590     2.0500 hc         1 V4Z       0.050033
     42 H103        -2.5460    -2.9150     2.1860 hc         1 V4Z       0.050033
     43 H12         -5.6060    -1.9860    -0.3740 ha         1 V4Z       0.150000
     44 H13         -7.2830    -0.1970    -0.8220 ha         1 V4Z       0.158000
     45 H15         -4.2700     2.6730     0.2140 h4         1 V4Z       0.041100
     46 H16          0.3150    -4.9290    -0.0560 h4         1 V4Z       0.031100
@<TRIPOS>BOND
     1     1     2 1   
     2     1    28 1   
     3     1    29 1   
     4     1    30 1   
     5     2     3 1   
     6     2     4 1   
     7     2    31 1   
     8     3    32 1   
     9     3    33 1   
    10     3    34 1   
    11     4     5 1   
    12     5     6 1   
    13     5    27 2   
    14     6     7 2   
    15     6    35 1   
    16     7     8 1   
    17     7    26 1   
    18     8     9 1   
    19     8    36 1   
    20     9    10 ar  
    21     9    24 ar  
    22    10    11 ar  
    23    11    12 1   
    24    11    22 ar  
    25    12    13 1   
    26    12    38 1   
    27    13    14 1   
    28    13    15 1   
    29    13    39 1   
    30    14    40 1   
    31    14    41 1   
    32    14    42 1   
    33    15    16 ar  
    34    15    21 ar  
    35    16    17 ar  
    36    16    43 1   
    37    17    18 ar  
    38    17    44 1   
    39    18    19 1   
    40    18    20 ar  
    41    20    21 ar  
    42    20    45 1   
    43    22    23 ar  
    44    23    24 ar  
    45    23    46 1   
    46    24    25 1   
    47    26    27 1   
    48    26    37 1   
@<TRIPOS>SUBSTRUCTURE
     1 V4Z         1 TEMP              0 ****  ****    0 ROOT
