@<TRIPOS>MOLECULE
V50
   32    33     1     0     0
SMALL
No Charge or Current Charge


@<TRIPOS>ATOM
      1 F13          1.5500    -0.0970    -2.4720 f          1 V50      -0.124500
      2 C4           1.2840    -0.3780    -1.1750 ca         1 V50       0.225500
      3 C5           2.2560    -0.1870    -0.1650 ca         1 V50      -0.288500
      4 S7           3.8920     0.4370    -0.5380 sy         1 V50       1.168600
      5 O9           4.1110     0.6050    -1.9710 o          1 V50      -0.525500
      6 N23          3.8290     1.9660     0.0200 n8         1 V50      -1.032100
      7 O8           4.8960    -0.1850     0.3200 o          1 V50      -0.525500
      8 C6           1.9100    -0.4870     1.1730 ca         1 V50       0.225500
      9 F11          2.7950    -0.2970     2.1800 f          1 V50      -0.124500
     10 C1           0.6260    -0.9760     1.4900 ca         1 V50       0.178500
     11 F10          0.3120    -1.2530     2.7780 f          1 V50      -0.131500
     12 C3           0.0020    -0.8680    -0.8500 ca         1 V50       0.178500
     13 F12         -0.9160    -1.0490    -1.8300 f          1 V50      -0.131500
     14 C2          -0.3350    -1.1720     0.4820 ca         1 V50      -0.152000
     15 S14         -1.9730    -1.7820     0.8980 ss         1 V50      -0.034300
     16 C15         -2.9630    -0.3330     0.5340 ca         1 V50       0.234300
     17 N20         -2.4020     0.8810     0.7330 nb         1 V50      -0.186000
     18 C19         -3.1560     1.9610     0.4520 ca         1 V50       0.146300
     19 C21         -2.5190     3.3210     0.6640 c3         1 V50      -0.152400
     20 C18         -4.4710     1.8260    -0.0250 ca         1 V50      -0.224000
     21 C17         -4.9720     0.5250    -0.1940 ca         1 V50       0.146300
     22 N16         -4.2170    -0.5570     0.0850 nb         1 V50      -0.186000
     23 C22         -6.3780     0.2730    -0.7060 c3         1 V50      -0.152400
     24 H1           4.1520     2.4690    -0.8040 hn         1 V50       0.488500
     25 H2           4.6580     1.9730     0.6110 hn         1 V50       0.488500
     26 H3          -1.8750     3.5850    -0.1830 hc         1 V50       0.059033
     27 H4          -3.2770     4.1060     0.7670 hc         1 V50       0.059033
     28 H5          -1.9040     3.3360     1.5720 hc         1 V50       0.059033
     29 H6          -5.0770     2.6980    -0.2560 ha         1 V50       0.135000
     30 H7          -6.3680     0.0750    -1.7840 hc         1 V50       0.059033
     31 H8          -6.8360    -0.5900    -0.2090 hc         1 V50       0.059033
     32 H9          -7.0270     1.1390    -0.5300 hc         1 V50       0.059033
@<TRIPOS>BOND
     1     1     2 1   
     2     2     3 ar  
     3     2    12 ar  
     4     3     4 1   
     5     3     8 ar  
     6     4     5 2   
     7     4     6 1   
     8     4     7 2   
     9     6    24 1   
    10     6    25 1   
    11     8     9 1   
    12     8    10 ar  
    13    10    11 1   
    14    10    14 ar  
    15    12    13 1   
    16    12    14 ar  
    17    14    15 1   
    18    15    16 1   
    19    16    17 ar  
    20    16    22 ar  
    21    17    18 ar  
    22    18    19 1   
    23    18    20 ar  
    24    19    26 1   
    25    19    27 1   
    26    19    28 1   
    27    20    21 ar  
    28    20    29 1   
    29    21    22 ar  
    30    21    23 1   
    31    23    30 1   
    32    23    31 1   
    33    23    32 1   
@<TRIPOS>SUBSTRUCTURE
     1 V50         1 TEMP              0 ****  ****    0 ROOT
