@<TRIPOS>MOLECULE
V50
   32    33     1     0     0
SMALL
abcg2


@<TRIPOS>ATOM
      1 F13          1.9740    -0.0810    -2.5190 f          1 V50      -0.124500
      2 C4           1.5090    -0.3600    -1.3130 ca         1 V50       0.225500
      3 C5           2.2550    -0.1480    -0.1620 ca         1 V50      -0.288500
      4 S7           3.9310     0.4790    -0.1850 sy         1 V50       1.168600
      5 O9           4.3110     0.6710    -1.5670 o          1 V50      -0.525500
      6 N23          3.7230     1.9090     0.5930 n8         1 V50      -1.032100
      7 O8           4.7310    -0.3650     0.6760 o          1 V50      -0.525500
      8 C6           1.6820    -0.4540     1.0670 ca         1 V50       0.225500
      9 F11          2.3540    -0.2440     2.1890 f          1 V50      -0.124500
     10 C1           0.4000    -0.9570     1.1450 ca         1 V50       0.178500
     11 F10         -0.1150    -1.2230     2.3350 f          1 V50      -0.131500
     12 C3           0.2230    -0.8660    -1.2220 ca         1 V50       0.178500
     13 F12         -0.4690    -1.0410    -2.3370 f          1 V50      -0.131500
     14 C2          -0.3450    -1.1740    -0.0010 ca         1 V50      -0.152000
     15 S14         -1.9680    -1.8400     0.0900 ss         1 V50      -0.034300
     16 C15         -2.9100    -0.3350     0.0810 ca         1 V50       0.234300
     17 N20         -2.2740     0.8120     0.0460 nb         1 V50      -0.186000
     18 C19         -3.0360     1.9080     0.0490 ca         1 V50       0.146300
     19 C21         -2.3310     3.2220     0.0060 c3         1 V50      -0.152400
     20 C18         -4.4180     1.8050     0.0870 ca         1 V50      -0.224000
     21 C17         -4.9830     0.5350     0.1160 ca         1 V50       0.146300
     22 N16         -4.2100    -0.5500     0.1150 nb         1 V50      -0.186000
     23 C22         -6.4600     0.3230     0.1240 c3         1 V50      -0.152400
     24 H1           3.5450     2.6930    -0.0230 hn         1 V50       0.488500
     25 H2           4.4630     2.1140     1.2530 hn         1 V50       0.488500
     26 H3          -1.7530     3.3070    -0.9140 hc         1 V50       0.059033
     27 H4          -3.0250     4.0580     0.0550 hc         1 V50       0.059033
     28 H5          -1.6290     3.3030     0.8350 hc         1 V50       0.059033
     29 H6          -5.0410     2.6880     0.0930 ha         1 V50       0.135000
     30 H7          -6.7950    -0.0060    -0.8610 hc         1 V50       0.059033
     31 H8          -6.7340    -0.4520     0.8370 hc         1 V50       0.059033
     32 H9          -6.9970     1.2340     0.3780 hc         1 V50       0.059033
@<TRIPOS>BOND
     1     1     2 1   
     2     2     3 ar  
     3     2    12 ar  
     4     3     4 1   
     5     3     8 ar  
     6     4     5 2   
     7     4     6 1   
     8     4     7 2   
     9     6    24 1   
    10     6    25 1   
    11     8     9 1   
    12     8    10 ar  
    13    10    11 1   
    14    10    14 ar  
    15    12    13 1   
    16    12    14 ar  
    17    14    15 1   
    18    15    16 1   
    19    16    17 ar  
    20    16    22 ar  
    21    17    18 ar  
    22    18    19 1   
    23    18    20 ar  
    24    19    26 1   
    25    19    27 1   
    26    19    28 1   
    27    20    21 ar  
    28    20    29 1   
    29    21    22 ar  
    30    21    23 1   
    31    23    30 1   
    32    23    31 1   
    33    23    32 1   
@<TRIPOS>SUBSTRUCTURE
     1 V50         1 TEMP              0 ****  ****    0 ROOT
