@<TRIPOS>MOLECULE
V51
   43    46     1     0     0
SMALL
bcc


@<TRIPOS>ATOM
      1 F14          2.6950     2.2240     0.4580 f          1 V51      -0.088400
      2 C4           2.0240     1.0830     0.5280 ca         1 V51       0.223900
      3 C5           2.6490    -0.1190     0.2130 ca         1 V51      -0.338500
      4 S7           4.3350    -0.0840    -0.3590 sy         1 V51       1.307200
      5 O9           4.4440     0.9560    -1.3630 o          1 V51      -0.599300
      6 N10          5.1000     0.4620     0.9850 n8         1 V51      -0.912700
      7 O8           4.7160    -1.4370    -0.7110 o          1 V51      -0.599300
      8 C6           1.8980    -1.2820     0.3250 ca         1 V51       0.223900
      9 F12          2.4180    -2.4770     0.0910 f          1 V51      -0.088400
     10 C1           0.5760    -1.2340     0.7310 ca         1 V51       0.046400
     11 F11         -0.0610    -2.3890     0.8980 f          1 V51      -0.112900
     12 C3           0.7010     1.1200     0.9070 ca         1 V51       0.046400
     13 F13          0.1530     2.3000     1.1930 f          1 V51      -0.112900
     14 C2          -0.0760    -0.0350     1.0010 ca         1 V51       0.142600
     15 N25         -1.4000    -0.0150     1.4330 nu         1 V51      -0.706600
     16 C19         -2.4980    -0.0020     0.4380 c6         1 V51       0.212200
     17 C18         -3.8010     0.0020     1.2410 c6         1 V51      -0.078067
     18 C20         -2.4740    -1.2390    -0.4620 c6         1 V51      -0.078067
     19 C24         -2.4570     1.2510    -0.4520 c6         1 V51      -0.078067
     20 C23         -3.6600     1.2720    -1.3980 c6         1 V51      -0.057033
     21 C21         -3.6270     0.0300    -2.2890 c6         1 V51      -0.071400
     22 C15         -3.6780    -1.2200    -1.4110 c6         1 V51      -0.057033
     23 C22         -4.9500     1.2790    -0.5760 c6         1 V51      -0.071400
     24 C17         -5.0050     0.0240     0.2980 c6         1 V51      -0.057033
     25 C16         -4.9710    -1.2190    -0.5930 c6         1 V51      -0.071400
     26 H1           5.3280    -0.2710     1.6480 hn         1 V51       0.430300
     27 H2           5.9150     1.0260     0.7620 hn         1 V51       0.430300
     28 H3          -1.5420     0.7600     2.0710 hn         1 V51       0.392800
     29 H4          -3.8350    -0.8830     1.8820 hc         1 V51       0.049533
     30 H5          -3.8270     0.8800     1.8970 hc         1 V51       0.049533
     31 H6          -1.5530    -1.2630    -1.0540 hc         1 V51       0.049533
     32 H7          -2.5020    -2.1440     0.1500 hc         1 V51       0.049533
     33 H8          -2.4620     2.1490     0.1750 hc         1 V51       0.049533
     34 H9          -1.5280     1.2640    -1.0330 hc         1 V51       0.049533
     35 H10         -3.6120     2.1720    -2.0180 hc         1 V51       0.054700
     36 H11         -4.4760     0.0390    -2.9790 hc         1 V51       0.043700
     37 H12         -2.7180     0.0270    -2.9000 hc         1 V51       0.043700
     38 H13         -3.6410    -2.1130    -2.0400 hc         1 V51       0.054700
     39 H14         -4.9930     2.1770     0.0500 hc         1 V51       0.043700
     40 H15         -5.8210     1.3130    -1.2380 hc         1 V51       0.043700
     41 H16         -5.9220     0.0270     0.8930 hc         1 V51       0.054700
     42 H17         -5.8400    -1.2310    -1.2580 hc         1 V51       0.043700
     43 H18         -5.0270    -2.1250     0.0200 hc         1 V51       0.043700
@<TRIPOS>BOND
     1     1     2 1   
     2     2     3 ar  
     3     2    12 ar  
     4     3     4 1   
     5     3     8 ar  
     6     4     5 2   
     7     4     6 1   
     8     4     7 2   
     9     6    26 1   
    10     6    27 1   
    11     8     9 1   
    12     8    10 ar  
    13    10    11 1   
    14    10    14 ar  
    15    12    13 1   
    16    12    14 ar  
    17    14    15 1   
    18    15    16 1   
    19    15    28 1   
    20    16    17 1   
    21    16    18 1   
    22    16    19 1   
    23    17    24 1   
    24    17    29 1   
    25    17    30 1   
    26    18    22 1   
    27    18    31 1   
    28    18    32 1   
    29    19    20 1   
    30    19    33 1   
    31    19    34 1   
    32    20    21 1   
    33    20    23 1   
    34    20    35 1   
    35    21    22 1   
    36    21    36 1   
    37    21    37 1   
    38    22    25 1   
    39    22    38 1   
    40    23    24 1   
    41    23    39 1   
    42    23    40 1   
    43    24    25 1   
    44    24    41 1   
    45    25    42 1   
    46    25    43 1   
@<TRIPOS>SUBSTRUCTURE
     1 V51         1 TEMP              0 ****  ****    0 ROOT
