@<TRIPOS>MOLECULE
V51
   43    46     1     0     0
SMALL
No Charge or Current Charge


@<TRIPOS>ATOM
      1 F14          2.7020     2.3530     0.5630 f          1 V51      -0.123500
      2 C4           2.0460     1.1690     0.5710 ca         1 V51       0.259000
      3 C5           2.7040    -0.0260     0.2140 ca         1 V51      -0.338500
      4 S7           4.4210     0.0230    -0.2790 sy         1 V51       1.165600
      5 O9           4.7190     1.2480    -1.0160 o          1 V51      -0.528500
      6 N10          5.1860     0.2490     1.1390 n8         1 V51      -1.023100
      7 O8           4.9080    -1.2770    -0.7290 o          1 V51      -0.528500
      8 C6           1.9880    -1.2400     0.2880 ca         1 V51       0.259000
      9 F12          2.5790    -2.4220     0.0010 f          1 V51      -0.123500
     10 C1           0.6350    -1.2550     0.6780 ca         1 V51       0.081500
     11 F11         -0.0030    -2.4480     0.7820 f          1 V51      -0.148000
     12 C3           0.6950     1.1580     0.9630 ca         1 V51       0.081500
     13 F13          0.0970     2.3250     1.3130 f          1 V51      -0.148000
     14 C2          -0.0360    -0.0500     0.9950 ca         1 V51       0.281000
     15 N25         -1.3970    -0.0370     1.3910 nu         1 V51      -0.900200
     16 C19         -2.5260    -0.0300     0.4380 c6         1 V51       0.212200
     17 C18         -3.8480     0.0640     1.2600 c6         1 V51      -0.078067
     18 C20         -2.5670    -1.3280    -0.4300 c6         1 V51      -0.078067
     19 C24         -2.4350     1.2090    -0.5080 c6         1 V51      -0.078067
     20 C23         -3.6600     1.2440    -1.4680 c6         1 V51      -0.057033
     21 C21         -3.6850    -0.0560    -2.3220 c6         1 V51      -0.071400
     22 C15         -3.7940    -1.2960    -1.3880 c6         1 V51      -0.057033
     23 C22         -4.9690     1.3360    -0.6310 c6         1 V51      -0.071400
     24 C17         -5.0790     0.0990     0.3060 c6         1 V51      -0.057033
     25 C16         -5.1020    -1.1990    -0.5510 c6         1 V51      -0.071400
     26 H1           5.8580    -0.5140     1.1030 hn         1 V51       0.485500
     27 H2           5.7640     1.0520     0.9040 hn         1 V51       0.485500
     28 H3          -1.5500     0.5710     2.1960 hn         1 V51       0.448000
     29 H4          -3.9320    -0.7910     1.9440 hc         1 V51       0.049533
     30 H5          -3.8430     0.9650     1.8900 hc         1 V51       0.049533
     31 H6          -1.6490    -1.4230    -1.0240 hc         1 V51       0.049533
     32 H7          -2.6210    -2.2150     0.2150 hc         1 V51       0.049533
     33 H8          -2.3980     2.1360     0.0800 hc         1 V51       0.049533
     34 H9          -1.5080     1.1770    -1.0970 hc         1 V51       0.049533
     35 H10         -3.5850     2.1180    -2.1300 hc         1 V51       0.054700
     36 H11         -4.5320    -0.0340    -3.0230 hc         1 V51       0.043700
     37 H12         -2.7770    -0.1230    -2.9380 hc         1 V51       0.043700
     38 H13         -3.8120    -2.2130    -1.9930 hc         1 V51       0.054700
     39 H14         -4.9770     2.2620    -0.0390 hc         1 V51       0.043700
     40 H15         -5.8420     1.3870    -1.2960 hc         1 V51       0.043700
     41 H16         -6.0020     0.1660     0.8980 hc         1 V51       0.054700
     42 H17         -5.9780    -1.2000    -1.2140 hc         1 V51       0.043700
     43 H18         -5.2030    -2.0810     0.0980 hc         1 V51       0.043700
@<TRIPOS>BOND
     1     1     2 1   
     2     2     3 ar  
     3     2    12 ar  
     4     3     4 1   
     5     3     8 ar  
     6     4     5 2   
     7     4     6 1   
     8     4     7 2   
     9     6    26 1   
    10     6    27 1   
    11     8     9 1   
    12     8    10 ar  
    13    10    11 1   
    14    10    14 ar  
    15    12    13 1   
    16    12    14 ar  
    17    14    15 1   
    18    15    16 1   
    19    15    28 1   
    20    16    17 1   
    21    16    18 1   
    22    16    19 1   
    23    17    24 1   
    24    17    29 1   
    25    17    30 1   
    26    18    22 1   
    27    18    31 1   
    28    18    32 1   
    29    19    20 1   
    30    19    33 1   
    31    19    34 1   
    32    20    21 1   
    33    20    23 1   
    34    20    35 1   
    35    21    22 1   
    36    21    36 1   
    37    21    37 1   
    38    22    25 1   
    39    22    38 1   
    40    23    24 1   
    41    23    39 1   
    42    23    40 1   
    43    24    25 1   
    44    24    41 1   
    45    25    42 1   
    46    25    43 1   
@<TRIPOS>SUBSTRUCTURE
     1 V51         1 TEMP              0 ****  ****    0 ROOT
