@<TRIPOS>MOLECULE
V52
   56    61     1     0     0
SMALL
bcc


@<TRIPOS>ATOM
      1 C1          -6.1050    -5.7520    -5.9140 c3         1 V52      -0.151400
      2 C2          -7.3220    -6.5950    -6.2450 c          1 V52       0.675100
      3 C3          -6.6820    -6.5100    -8.6610 c6         1 V52       0.074000
      4 C7          -8.7090    -9.3460   -13.1780 ca         1 V52       0.453600
      5 C8          -9.4330   -10.2960   -13.9180 ca         1 V52      -0.193300
      6 C9          -9.9590   -11.4190   -13.3300 cp         1 V52       0.031000
      7 C10         -9.7660   -11.6020   -11.9490 ca         1 V52      -0.013600
      8 C11         -9.0880   -10.6740   -11.1850 ca         1 V52       0.158100
      9 C12         -9.3540    -9.8080    -9.0520 c3         1 V52       0.127400
     10 C13         -8.1580    -8.9720    -8.6860 c6         1 V52       0.184500
     11 C14         -8.6500    -7.7140    -7.9560 c6         1 V52       0.065000
     12 C15        -10.6920   -12.4060   -14.1530 cp         1 V52      -0.003000
     13 C16        -12.0510   -12.5900   -14.0790 ca         1 V52      -0.056300
     14 C19        -10.6030   -14.1460   -15.9100 ca         1 V52      -0.072000
     15 C20         -9.9600   -13.1880   -15.0810 ca         1 V52      -0.129000
     16 C21         -8.6180   -13.2800   -15.4370 cc         1 V52      -0.146100
     17 C22        -12.9250   -11.8100   -13.1420 c3         1 V52      -0.048800
     18 CL         -10.3880   -13.0100   -11.1710 cl         1 V52      -0.072400
     19 C6          -8.5340    -9.5200   -11.7830 ca         1 V52      -0.328600
     20 O1          -8.9850   -10.9060    -9.8680 os         1 V52      -0.297900
     21 N1          -7.3260    -8.5870    -9.8210 nh         1 V52      -0.769300
     22 C4          -6.2060    -7.7700    -9.3700 c6         1 V52       0.194800
     23 N           -7.5460    -6.8730    -7.5550 n          1 V52      -0.485800
     24 O           -8.0740    -6.9970    -5.3690 o          1 V52      -0.597100
     25 C           -5.9790    -5.4460    -4.4310 c3         1 V52      -0.078100
     26 N4          -8.1710    -8.2990   -13.8550 nb         1 V52      -0.728000
     27 C23         -7.4330    -7.4940   -13.1520 ca         1 V52       0.698900
     28 N5          -7.1670    -7.5640   -11.8460 nb         1 V52      -0.827000
     29 C5          -7.7000    -8.5360   -11.1250 ca         1 V52       0.744200
     30 N2          -8.5660   -14.2200   -16.3850 na         1 V52       0.066800
     31 N3          -9.7270   -14.7690   -16.7040 nc         1 V52      -0.281400
     32 C18        -12.0010   -14.3290   -15.8180 ca         1 V52      -0.085000
     33 C17        -12.6810   -13.5580   -14.9220 ca         1 V52      -0.123000
     34 H1          -5.2060    -6.2700    -6.2590 hc         1 V52       0.057200
     35 H2          -6.1460    -4.8200    -6.4840 hc         1 V52       0.057200
     36 H3          -5.8210    -5.9420    -8.3200 h1         1 V52       0.064200
     37 H4          -7.2330    -5.8770    -9.3640 h1         1 V52       0.064200
     38 H5          -9.5620   -10.1270   -14.9790 ha         1 V52       0.165000
     39 H6         -10.1260    -9.2080    -9.5460 h1         1 V52       0.069700
     40 H7          -9.7890   -10.2150    -8.1390 h1         1 V52       0.069700
     41 H8          -7.5200    -9.5440    -8.0040 h1         1 V52       0.086700
     42 H9          -9.3100    -7.1550    -8.6290 h1         1 V52       0.071200
     43 H10         -9.2270    -8.0020    -7.0800 h1         1 V52       0.071200
     44 H11         -7.7370   -12.7630   -15.0940 h4         1 V52       0.183000
     45 H12        -13.2570   -12.4300   -12.3070 hc         1 V52       0.044033
     46 H13        -12.4220   -10.9390   -12.7250 hc         1 V52       0.044033
     47 H14        -13.8220   -11.4600   -13.6550 hc         1 V52       0.044033
     48 H15         -5.6230    -8.3770    -8.6700 h1         1 V52       0.074200
     49 H16         -5.5680    -7.5130   -10.2080 h1         1 V52       0.074200
     50 H17         -5.0890    -4.8420    -4.2560 hc         1 V52       0.043700
     51 H18         -6.8370    -4.8890    -4.0570 hc         1 V52       0.043700
     52 H19         -5.8840    -6.3550    -3.8380 hc         1 V52       0.043700
     53 H20         -6.9780    -6.6580   -13.6740 h5         1 V52       0.046100
     54 H21         -7.7310   -14.5280   -16.8620 hn         1 V52       0.320700
     55 H22        -12.5130   -15.0510   -16.4410 ha         1 V52       0.146000
     56 H23        -13.7550   -13.6720   -14.8380 ha         1 V52       0.130000
@<TRIPOS>BOND
     1     1     2 1   
     2     1    25 1   
     3     1    34 1   
     4     1    35 1   
     5     2    23 1   
     6     2    24 2   
     7     3    22 1   
     8     3    23 1   
     9     3    36 1   
    10     3    37 1   
    11     4     5 ar  
    12     4    19 ar  
    13     4    26 ar  
    14     5     6 ar  
    15     5    38 1   
    16     6     7 ar  
    17     6    12 1   
    18     7     8 ar  
    19     7    18 1   
    20     8    19 ar  
    21     8    20 1   
    22     9    10 1   
    23     9    20 1   
    24     9    39 1   
    25     9    40 1   
    26    10    11 1   
    27    10    21 1   
    28    10    41 1   
    29    11    23 1   
    30    11    42 1   
    31    11    43 1   
    32    12    13 ar  
    33    12    15 ar  
    34    13    17 1   
    35    13    33 ar  
    36    14    15 ar  
    37    14    31 2   
    38    14    32 ar  
    39    15    16 2   
    40    16    30 1   
    41    16    44 1   
    42    17    45 1   
    43    17    46 1   
    44    17    47 1   
    45    19    29 ar  
    46    21    22 1   
    47    21    29 1   
    48    22    48 1   
    49    22    49 1   
    50    25    50 1   
    51    25    51 1   
    52    25    52 1   
    53    26    27 ar  
    54    27    28 ar  
    55    27    53 1   
    56    28    29 ar  
    57    30    31 1   
    58    30    54 1   
    59    32    33 ar  
    60    32    55 1   
    61    33    56 1   
@<TRIPOS>SUBSTRUCTURE
     1 V52         1 TEMP              0 ****  ****    0 ROOT
