@<TRIPOS>MOLECULE
V52
   56    61     1     0     0
SMALL
No Charge or Current Charge


@<TRIPOS>ATOM
      1 C1          -6.0980    -5.4010    -5.9250 c3         1 V52      -0.151400
      2 C2          -7.2940    -6.3260    -6.2360 c          1 V52       0.608100
      3 C3          -6.1820    -7.0700    -8.3950 c6         1 V52       0.074000
      4 C7          -8.9250    -9.2540   -13.0850 ca         1 V52       0.060000
      5 C8          -9.6120   -10.1710   -13.8950 ca         1 V52      -0.110000
      6 C9         -10.0170   -11.4300   -13.4110 cp         1 V52       0.031000
      7 C10         -9.7480   -11.7510   -12.0620 ca         1 V52       0.078000
      8 C11         -9.0840   -10.8310   -11.2220 ca         1 V52       0.158100
      9 C12         -9.3070   -10.1450    -8.9050 c3         1 V52       0.150600
     10 C13         -8.0210    -9.3630    -8.5490 c6         1 V52       0.184500
     11 C14         -8.3310    -8.1620    -7.6090 c6         1 V52       0.065000
     12 C15        -10.7360   -12.3740   -14.3110 cp         1 V52      -0.003000
     13 C16        -12.1560   -12.4760   -14.3250 ca         1 V52      -0.056300
     14 C19        -10.6300   -14.0940   -16.0530 ca         1 V52      -0.072000
     15 C20        -10.0200   -13.2030   -15.2000 ca         1 V52      -0.129000
     16 C21         -8.6250   -13.3500   -15.4430 cc         1 V52      -0.196100
     17 C22        -13.0160   -11.6090   -13.4120 c3         1 V52      -0.048800
     18 Cl         -10.2860   -13.3020   -11.3990 cl         1 V52      -0.164000
     19 C6          -8.6240    -9.5880   -11.7370 ca         1 V52      -0.198000
     20 O1          -9.0070   -11.1480    -9.8860 os         1 V52      -0.321100
     21 N1          -7.2520    -8.9070    -9.7340 nh         1 V52      -0.769300
     22 C4          -5.9570    -8.2980    -9.3190 c6         1 V52       0.194800
     23 N           -7.1650    -7.2770    -7.2770 n          1 V52      -0.418800
     24 O           -8.3180    -6.2780    -5.5640 o          1 V52      -0.597100
     25 C           -6.2570    -4.4800    -4.6930 c3         1 V52      -0.078100
     26 N4          -8.5470    -8.0730   -13.6100 nb         1 V52      -0.202000
     27 C23         -7.8520    -7.2410   -12.8190 ca         1 V52       0.172900
     28 N5          -7.4610    -7.4830   -11.5600 nb         1 V52      -0.301000
     29 C5          -7.8330    -8.6550   -11.0060 ca         1 V52       0.415900
     30 N2          -8.4970   -14.3220   -16.4290 na         1 V52       0.016500
     31 N3          -9.7370   -14.8190   -16.8440 nc         1 V52      -0.281400
     32 C18        -12.0270   -14.2060   -16.0670 ca         1 V52      -0.067000
     33 C17        -12.7870   -13.3930   -15.2010 ca         1 V52      -0.105000
     34 H1          -5.2000    -6.0240    -5.8450 hc         1 V52       0.057200
     35 H2          -5.8760    -4.8170    -6.8260 hc         1 V52       0.057200
     36 H3          -5.2030    -6.7790    -7.9920 h1         1 V52       0.064200
     37 H4          -6.5380    -6.2330    -9.0130 h1         1 V52       0.064200
     38 H5          -9.8300    -9.9130   -14.9280 ha         1 V52       0.147000
     39 H6         -10.0770    -9.4540    -9.2750 h1         1 V52       0.069700
     40 H7          -9.6880   -10.6130    -7.9890 h1         1 V52       0.069700
     41 H8          -7.3950   -10.0690    -7.9810 h1         1 V52       0.086700
     42 H9          -9.1040    -7.5390    -8.0820 h1         1 V52       0.071200
     43 H10         -8.7640    -8.5560    -6.6780 h1         1 V52       0.071200
     44 H11         -7.7530   -12.8660   -15.0150 h4         1 V52       0.233000
     45 H12        -12.8940   -11.9020   -12.3630 hc         1 V52       0.044033
     46 H13        -12.7410   -10.5510   -13.4990 hc         1 V52       0.044033
     47 H14        -14.0810   -11.6900   -13.6570 hc         1 V52       0.044033
     48 H15         -5.3610    -9.0430    -8.7720 h1         1 V52       0.074200
     49 H16         -5.3470    -8.0040   -10.1850 h1         1 V52       0.074200
     50 H17         -5.3570    -3.8680    -4.5550 hc         1 V52       0.043700
     51 H18         -7.1130    -3.8070    -4.8180 hc         1 V52       0.043700
     52 H19         -6.4100    -5.0730    -3.7830 hc         1 V52       0.043700
     53 H20         -7.5510    -6.2890   -13.2530 h5         1 V52       0.046100
     54 H21         -7.6310   -14.6690   -16.8370 hn         1 V52       0.371000
     55 H22        -12.5180   -14.9070   -16.7380 ha         1 V52       0.128000
     56 H23        -13.8710   -13.4770   -15.2130 ha         1 V52       0.112000
@<TRIPOS>BOND
     1     1     2 1   
     2     1    25 1   
     3     1    34 1   
     4     1    35 1   
     5     2    23 1   
     6     2    24 2   
     7     3    22 1   
     8     3    23 1   
     9     3    36 1   
    10     3    37 1   
    11     4     5 ar  
    12     4    19 ar  
    13     4    26 ar  
    14     5     6 ar  
    15     5    38 1   
    16     6     7 ar  
    17     6    12 1   
    18     7     8 ar  
    19     7    18 1   
    20     8    19 ar  
    21     8    20 1   
    22     9    10 1   
    23     9    20 1   
    24     9    39 1   
    25     9    40 1   
    26    10    11 1   
    27    10    21 1   
    28    10    41 1   
    29    11    23 1   
    30    11    42 1   
    31    11    43 1   
    32    12    13 ar  
    33    12    15 ar  
    34    13    17 1   
    35    13    33 ar  
    36    14    15 ar  
    37    14    31 2   
    38    14    32 ar  
    39    15    16 2   
    40    16    30 1   
    41    16    44 1   
    42    17    45 1   
    43    17    46 1   
    44    17    47 1   
    45    19    29 ar  
    46    21    22 1   
    47    21    29 1   
    48    22    48 1   
    49    22    49 1   
    50    25    50 1   
    51    25    51 1   
    52    25    52 1   
    53    26    27 ar  
    54    27    28 ar  
    55    27    53 1   
    56    28    29 ar  
    57    30    31 1   
    58    30    54 1   
    59    32    33 ar  
    60    32    55 1   
    61    33    56 1   
@<TRIPOS>SUBSTRUCTURE
     1 V52         1 TEMP              0 ****  ****    0 ROOT
