@<TRIPOS>MOLECULE
V53
   28    29     1     0     0
SMALL
No Charge or Current Charge


@<TRIPOS>ATOM
      1 C           -5.6360   -16.7990    15.2540 c          1 V53       0.613500
      2 CAF         -3.7560   -15.4120    18.3460 ca         1 V53       0.194100
      3 CAD         -4.1520   -15.6500    17.0190 ca         1 V53      -0.270000
      4 CAJ         -5.2040   -16.5460    16.7400 ca         1 V53       0.334500
      5 CAL         -4.4280   -16.0850    19.3850 ca         1 V53      -0.112000
      6 CAM         -5.4790   -16.9800    19.0610 ca         1 V53       0.253000
      7 CA          -6.1530   -17.6580    20.1360 ca         1 V53       0.274000
      8 CAK         -5.7760   -17.4280    21.4690 ca         1 V53      -0.220000
      9 CAG         -4.7350   -16.5390    21.7680 ca         1 V53      -0.171000
     10 CAI         -4.0630   -15.8720    20.7340 ca         1 V53      -0.054000
     11 C01         -1.9900   -13.8080    17.6430 c3         1 V53      -0.127400
     12 NAH         -5.8460   -17.1920    17.7630 nb         1 V53      -0.744000
     13 N           -7.1890   -18.5490    19.9170 nv         1 V53      -1.088000
     14 O           -5.0460   -16.2120    14.3510 o          1 V53      -0.730500
     15 O1           0.0430   -11.9960    17.2590 o          1 V53      -0.929833
     16 O2          -1.2850   -11.6970    19.2830 o          1 V53      -0.929833
     17 O3           0.3220   -13.5320    19.1330 o          1 V53      -0.929833
     18 P           -0.6600   -12.7030    18.3710 p5         1 V53       1.303500
     19 HAK         -6.2880   -17.9400    22.2800 ha         1 V53       0.060000
     20 HAG         -4.4470   -16.3670    22.8020 ha         1 V53       0.071000
     21 HAI         -3.2570   -15.1860    20.9910 ha         1 V53       0.152000
     22 H           -7.7870   -18.8280    20.6910 hn         1 V53       0.442000
     23 H2          -7.5650   -18.6150    18.9720 hn         1 V53       0.442000
     24 OXT         -6.5560   -17.5780    15.0090 o          1 V53      -0.730500
     25 HAD         -3.6580   -15.1500    16.1940 ha         1 V53       0.153000
     26 H1          -2.6670   -13.1680    17.0630 h1         1 V53       0.007700
     27 H3          -1.4960   -14.5050    16.9540 h1         1 V53       0.007700
     28 O01         -2.7280   -14.5370    18.6540 os         1 V53      -0.273100
@<TRIPOS>BOND
     1     1     4 1   
     2     1    14 1   
     3     1    24 1   
     4     2     3 ar  
     5     2     5 ar  
     6     2    28 1   
     7     3     4 ar  
     8     3    25 1   
     9     4    12 ar  
    10     5     6 ar  
    11     5    10 ar  
    12     6     7 ar  
    13     6    12 ar  
    14     7     8 ar  
    15     7    13 1   
    16     8     9 ar  
    17     8    19 1   
    18     9    10 ar  
    19     9    20 1   
    20    10    21 1   
    21    11    18 1   
    22    11    26 1   
    23    11    27 1   
    24    11    28 1   
    25    13    22 1   
    26    13    23 1   
    27    15    18 1   
    28    16    18 1   
    29    17    18 1   
@<TRIPOS>SUBSTRUCTURE
     1 V53         1 TEMP              0 ****  ****    0 ROOT
