@<TRIPOS>MOLECULE
V53
   28    29     1     0     0
SMALL
abcg2


@<TRIPOS>ATOM
      1 C           -5.7020   -16.8140    15.3780 c          1 V53       0.613500
      2 CAF         -3.6830   -15.4220    18.2930 ca         1 V53       0.194100
      3 CAD         -4.1130   -15.6840    17.0130 ca         1 V53      -0.270000
      4 CAJ         -5.2020   -16.5580    16.8090 ca         1 V53       0.334500
      5 CAL         -4.3390   -16.0690    19.3850 ca         1 V53      -0.112000
      6 CAM         -5.4020   -16.9370    19.0590 ca         1 V53       0.253000
      7 CA          -6.1030   -17.6140    20.1100 ca         1 V53       0.274000
      8 CAK         -5.7230   -17.3820    21.4190 ca         1 V53      -0.220000
      9 CAG         -4.6630   -16.5140    21.7180 ca         1 V53      -0.171000
     10 CAI         -3.9690   -15.8620    20.7310 ca         1 V53      -0.054000
     11 C01         -1.9800   -13.8690    17.6250 c3         1 V53      -0.127400
     12 NAH         -5.8210   -17.1610    17.7950 nb         1 V53      -0.744000
     13 N           -7.0940   -18.4970    19.7730 nv         1 V53      -1.088000
     14 O           -5.0480   -16.2620    14.4710 o          1 V53      -0.730500
     15 O1          -0.0890   -12.0200    17.2870 o          1 V53      -0.929833
     16 O2          -1.6590   -11.7880    19.3210 o          1 V53      -0.929833
     17 O3           0.1450   -13.6230    19.2920 o          1 V53      -0.929833
     18 P           -0.7700   -12.7050    18.4770 p5         1 V53       1.303500
     19 HAK         -6.2500   -17.8810    22.2240 ha         1 V53       0.060000
     20 HAG         -4.3930   -16.3590    22.7560 ha         1 V53       0.071000
     21 HAI         -3.1540   -15.1980    20.9790 ha         1 V53       0.152000
     22 H           -7.7880   -18.6840    20.4780 hn         1 V53       0.442000
     23 H2          -7.4730   -18.3750    18.8470 hn         1 V53       0.442000
     24 OXT         -6.7050   -17.5350    15.2550 o          1 V53      -0.730500
     25 HAD         -3.6460   -15.2270    16.1540 ha         1 V53       0.153000
     26 H1          -2.6930   -13.3120    17.0050 h1         1 V53       0.007700
     27 H3          -1.4670   -14.5760    16.9600 h1         1 V53       0.007700
     28 O01         -2.6970   -14.6030    18.6270 os         1 V53      -0.273100
@<TRIPOS>BOND
     1     1     4 1   
     2     1    14 1   
     3     1    24 1   
     4     2     3 ar  
     5     2     5 ar  
     6     2    28 1   
     7     3     4 ar  
     8     3    25 1   
     9     4    12 ar  
    10     5     6 ar  
    11     5    10 ar  
    12     6     7 ar  
    13     6    12 ar  
    14     7     8 ar  
    15     7    13 1   
    16     8     9 ar  
    17     8    19 1   
    18     9    10 ar  
    19     9    20 1   
    20    10    21 1   
    21    11    18 1   
    22    11    26 1   
    23    11    27 1   
    24    11    28 1   
    25    13    22 1   
    26    13    23 1   
    27    15    18 1   
    28    16    18 1   
    29    17    18 1   
@<TRIPOS>SUBSTRUCTURE
     1 V53         1 TEMP              0 ****  ****    0 ROOT
