@<TRIPOS>MOLECULE
V54
   52    55     1     0     0
SMALL
abcg2


@<TRIPOS>ATOM
      1 C02          4.1380     7.1930    22.8660 ca         1 V54       0.603900
      2 C03          3.8310     6.0430    22.1170 ca         1 V54      -0.234000
      3 C04          4.7940     5.5450    21.2690 ca         1 V54      -0.033000
      4 C05          6.0320     6.1780    21.1740 ca         1 V54      -0.213000
      5 C06          6.2400     7.3110    21.9430 ca         1 V54       0.403300
      6 C07          7.5280     8.0860    21.8590 c3         1 V54       0.110500
      7 C09          9.2070     9.2690    23.1520 c3         1 V54       0.204100
      8 C10          9.1510    10.5520    22.3480 ca         1 V54      -0.089300
      9 C11         10.0080    10.7600    21.2690 ca         1 V54      -0.140000
     10 C12          9.9320    11.9360    20.5400 ca         1 V54      -0.074000
     11 C13          9.0040    12.9190    20.8590 ca         1 V54      -0.197000
     12 C14          8.1390    12.7090    21.9320 ca         1 V54       0.146100
     13 C16          7.0000    14.7580    21.5680 c3         1 V54       0.210900
     14 C17          5.8150    15.5210    22.0880 ca         1 V54      -0.071300
     15 C18          5.5530    16.7750    21.4930 ca         1 V54      -0.131000
     16 C19          4.4730    17.5170    21.8860 ca         1 V54      -0.070000
     17 C20          3.6080    17.0450    22.8910 ca         1 V54      -0.130000
     18 C21          2.4710    17.7620    23.3430 ca         1 V54      -0.028000
     19 C22          1.6830    17.2380    24.3150 ca         1 V54      -0.210000
     20 C23          2.0270    15.9640    24.8670 ca         1 V54       0.617900
     21 C26          3.8630    15.7940    23.4990 ca         1 V54       0.325000
     22 C27          4.9850    15.0460    23.0720 ca         1 V54      -0.074000
     23 C28          8.2190    11.5290    22.6690 ca         1 V54      -0.140000
     24 N01          3.2470     7.7040    23.7640 nv         1 V54      -1.055900
     25 N08          7.9900     8.4810    23.1730 n7         1 V54      -0.853400
     26 N24          1.2210    15.4190    25.8110 nv         1 V54      -1.070900
     27 N25          3.0770    15.2800    24.4730 nb         1 V54      -0.758000
     28 N29          5.3150     7.8050    22.7630 nb         1 V54      -0.757000
     29 O15          7.1980    13.5930    22.3290 os         1 V54      -0.344100
     30 H1           2.8630     5.5680    22.2120 ha         1 V54       0.119000
     31 H2           4.5880     4.6600    20.6810 ha         1 V54       0.113000
     32 H3           6.8080     5.8010    20.5230 ha         1 V54       0.123000
     33 H4           8.2940     7.4670    21.3840 h1         1 V54       0.043700
     34 H5           7.3630     8.9390    21.1810 h1         1 V54       0.043700
     35 H6          10.0170     8.6460    22.7640 h1         1 V54       0.058700
     36 H7           9.4650     9.5040    24.1880 h1         1 V54       0.058700
     37 H8          10.7340    10.0010    21.0040 ha         1 V54       0.114000
     38 H9          10.6010    12.0980    19.7040 ha         1 V54       0.111000
     39 H10          8.9730    13.8250    20.2700 ha         1 V54       0.116000
     40 H11          6.8240    14.5080    20.5140 h1         1 V54       0.042200
     41 H12          7.8900    15.3990    21.5970 h1         1 V54       0.042200
     42 H13          6.2110    17.1470    20.7170 ha         1 V54       0.111000
     43 H14          4.2720    18.4780    21.4260 ha         1 V54       0.112000
     44 H15          2.2390    18.7260    22.9060 ha         1 V54       0.116000
     45 H16          0.8080    17.7640    24.6760 ha         1 V54       0.120000
     46 H17          5.1620    14.0890    23.5450 ha         1 V54       0.145000
     47 H18          7.5380    11.3870    23.5020 ha         1 V54       0.129000
     48 H19          3.4050     8.6540    24.0590 hn         1 V54       0.470000
     49 H20          2.2770     7.4630    23.6480 hn         1 V54       0.470000
     50 H21          7.2490     8.9870    23.6430 hn         1 V54       0.436000
     51 H23          1.5780    14.6380    26.3360 hn         1 V54       0.479000
     52 H24          0.5770    16.0130    26.3050 hn         1 V54       0.479000
@<TRIPOS>BOND
     1     1     2 ar  
     2     1    24 1   
     3     1    28 ar  
     4     2     3 ar  
     5     2    30 1   
     6     3     4 ar  
     7     3    31 1   
     8     4     5 ar  
     9     4    32 1   
    10     5     6 1   
    11     5    28 ar  
    12     6    25 1   
    13     6    33 1   
    14     6    34 1   
    15     7     8 1   
    16     7    25 1   
    17     7    35 1   
    18     7    36 1   
    19     8     9 ar  
    20     8    23 ar  
    21     9    10 ar  
    22     9    37 1   
    23    10    11 ar  
    24    10    38 1   
    25    11    12 ar  
    26    11    39 1   
    27    12    23 ar  
    28    12    29 1   
    29    13    14 1   
    30    13    29 1   
    31    13    40 1   
    32    13    41 1   
    33    14    15 ar  
    34    14    22 ar  
    35    15    16 ar  
    36    15    42 1   
    37    16    17 ar  
    38    16    43 1   
    39    17    18 ar  
    40    17    21 ar  
    41    18    19 ar  
    42    18    44 1   
    43    19    20 ar  
    44    19    45 1   
    45    20    26 1   
    46    20    27 ar  
    47    21    22 ar  
    48    21    27 ar  
    49    22    46 1   
    50    23    47 1   
    51    24    48 1   
    52    24    49 1   
    53    25    50 1   
    54    26    51 1   
    55    26    52 1   
@<TRIPOS>SUBSTRUCTURE
     1 V54         1 TEMP              0 ****  ****    0 ROOT
