@<TRIPOS>MOLECULE
V54
   52    55     1     0     0
SMALL
No Charge or Current Charge


@<TRIPOS>ATOM
      1 C02          4.3900     6.5220    22.5310 ca         1 V54       0.603900
      2 C03          4.4880     5.1300    22.5800 ca         1 V54      -0.234000
      3 C04          5.7520     4.5460    22.4170 ca         1 V54      -0.033000
      4 C05          6.8430     5.4050    22.2090 ca         1 V54      -0.213000
      5 C06          6.6320     6.7990    22.1710 ca         1 V54       0.403300
      6 C07          7.8110     7.7670    21.9460 c3         1 V54       0.110500
      7 C09          9.2970     9.5140    22.9910 c3         1 V54       0.204100
      8 C10          8.9080    10.6480    22.0460 ca         1 V54      -0.089300
      9 C11          9.3580    10.6530    20.7120 ca         1 V54      -0.140000
     10 C12          8.9990    11.6980    19.8440 ca         1 V54      -0.074000
     11 C13          8.1900    12.7500    20.3050 ca         1 V54      -0.197000
     12 C14          7.7360    12.7570    21.6420 ca         1 V54       0.146100
     13 C16          6.5200    14.8840    21.3560 c3         1 V54       0.210900
     14 C17          5.6650    15.7980    22.2230 ca         1 V54      -0.071300
     15 C18          6.2190    16.9540    22.8040 ca         1 V54      -0.131000
     16 C19          5.4270    17.7930    23.6030 ca         1 V54      -0.070000
     17 C20          4.0730    17.4800    23.8260 ca         1 V54      -0.130000
     18 C21          3.2770    18.3200    24.6270 ca         1 V54      -0.028000
     19 C22          1.9350    17.9650    24.8180 ca         1 V54      -0.210000
     20 C23          1.4680    16.8030    24.2020 ca         1 V54       0.617900
     21 C26          3.4960    16.3180    23.2490 ca         1 V54       0.325000
     22 C27          4.3090    15.4910    22.4520 ca         1 V54      -0.074000
     23 C28          8.0970    11.7070    22.5020 ca         1 V54      -0.140000
     24 N01          3.2410     7.1860    22.6630 nv         1 V54      -1.055900
     25 N08          8.1920     8.5460    23.1600 n7         1 V54      -0.853400
     26 N24          0.2170    16.3540    24.3150 nv         1 V54      -1.070900
     27 N25          2.1950    15.9920    23.4470 nb         1 V54      -0.758000
     28 N29          5.4020     7.3530    22.3310 nb         1 V54      -0.757000
     29 O15          6.9420    13.7630    22.1520 os         1 V54      -0.344100
     30 H1           3.6080     4.5170    22.7450 ha         1 V54       0.119000
     31 H2           5.8830     3.4660    22.4500 ha         1 V54       0.113000
     32 H3           7.8430     5.0010    22.0800 ha         1 V54       0.123000
     33 H4           8.6730     7.1890    21.5870 h1         1 V54       0.043700
     34 H5           7.5300     8.4490    21.1310 h1         1 V54       0.043700
     35 H6          10.1970     9.0110    22.6090 h1         1 V54       0.058700
     36 H7           9.5680     9.9500    23.9630 h1         1 V54       0.058700
     37 H8           9.9840     9.8430    20.3440 ha         1 V54       0.114000
     38 H9           9.3500    11.6920    18.8140 ha         1 V54       0.111000
     39 H10          7.9280    13.5460    19.6130 ha         1 V54       0.116000
     40 H11          5.9310    14.5460    20.4930 h1         1 V54       0.042200
     41 H12          7.3900    15.4400    20.9800 h1         1 V54       0.042200
     42 H13          7.2650    17.2010    22.6390 ha         1 V54       0.111000
     43 H14          5.8660    18.6830    24.0480 ha         1 V54       0.112000
     44 H15          3.6860    19.2190    25.0860 ha         1 V54       0.116000
     45 H16          1.2760    18.5770    25.4260 ha         1 V54       0.120000
     46 H17          3.8770    14.5980    22.0090 ha         1 V54       0.145000
     47 H18          7.7460    11.7190    23.5310 ha         1 V54       0.129000
     48 H19          3.2790     8.1540    22.3700 hn         1 V54       0.470000
     49 H20          2.3830     6.6840    22.4650 hn         1 V54       0.470000
     50 H21          7.3590     9.0680    23.4640 hn         1 V54       0.436000
     51 H23          0.0940    15.3930    24.0220 hn         1 V54       0.479000
     52 H24         -0.3140    16.6500    25.1260 hn         1 V54       0.479000
@<TRIPOS>BOND
     1     1     2 ar  
     2     1    24 1   
     3     1    28 ar  
     4     2     3 ar  
     5     2    30 1   
     6     3     4 ar  
     7     3    31 1   
     8     4     5 ar  
     9     4    32 1   
    10     5     6 1   
    11     5    28 ar  
    12     6    25 1   
    13     6    33 1   
    14     6    34 1   
    15     7     8 1   
    16     7    25 1   
    17     7    35 1   
    18     7    36 1   
    19     8     9 ar  
    20     8    23 ar  
    21     9    10 ar  
    22     9    37 1   
    23    10    11 ar  
    24    10    38 1   
    25    11    12 ar  
    26    11    39 1   
    27    12    23 ar  
    28    12    29 1   
    29    13    14 1   
    30    13    29 1   
    31    13    40 1   
    32    13    41 1   
    33    14    15 ar  
    34    14    22 ar  
    35    15    16 ar  
    36    15    42 1   
    37    16    17 ar  
    38    16    43 1   
    39    17    18 ar  
    40    17    21 ar  
    41    18    19 ar  
    42    18    44 1   
    43    19    20 ar  
    44    19    45 1   
    45    20    26 1   
    46    20    27 ar  
    47    21    22 ar  
    48    21    27 ar  
    49    22    46 1   
    50    23    47 1   
    51    24    48 1   
    52    24    49 1   
    53    25    50 1   
    54    26    51 1   
    55    26    52 1   
@<TRIPOS>SUBSTRUCTURE
     1 V54         1 TEMP              0 ****  ****    0 ROOT
