@<TRIPOS>MOLECULE
V55
   19    19     1     0     0
SMALL
bcc


@<TRIPOS>ATOM
      1 CAI         -1.4570    -0.1240     0.0110 ca         1 V55      -0.211600
      2 CAG         -0.2810    -0.8820    -0.0120 ca         1 V55      -0.129000
      3 CAK          0.9490    -0.2590    -0.0640 ca         1 V55       0.028100
      4 CAJ          1.0130     1.1480    -0.0920 ca         1 V55       0.155100
      5 CAF         -0.1590     1.8960    -0.0670 ca         1 V55      -0.164000
      6 OAB         -3.8250    -0.2920     0.0910 o          1 V55      -0.522100
      7 CAE         -1.3890     1.2650    -0.0160 ca         1 V55      -0.054000
      8 CAD         -2.7380    -0.8280     0.0650 c          1 V55       0.588500
      9 CAA          2.1780    -2.2900    -0.0690 c3         1 V55       0.133700
     10 OAH          2.1470    -0.8750    -0.0920 os         1 V55      -0.343900
     11 OAC          2.1880     1.7860    -0.1430 oh         1 V55      -0.487100
     12 HAG         -0.3550    -1.9630     0.0100 ha         1 V55       0.136000
     13 HAD         -2.6530    -1.9300     0.0810 h4         1 V55      -0.016800
     14 HAE         -2.2940     1.8570     0.0010 ha         1 V55       0.155000
     15 HAF         -0.0930     2.9760    -0.0910 ha         1 V55       0.155000
     16 HAC          2.9170     1.1520    -0.1590 ho         1 V55       0.448000
     17 HAA1         3.2250    -2.5780    -0.0980 h1         1 V55       0.043367
     18 HAA2         1.7250    -2.6870     0.8440 h1         1 V55       0.043367
     19 HAA3         1.6670    -2.7180    -0.9350 h1         1 V55       0.043367
@<TRIPOS>BOND
     1     1     2 ar  
     2     1     7 ar  
     3     1     8 1   
     4     2     3 ar  
     5     2    12 1   
     6     3     4 ar  
     7     3    10 1   
     8     4     5 ar  
     9     4    11 1   
    10     5     7 ar  
    11     5    15 1   
    12     6     8 2   
    13     7    14 1   
    14     8    13 1   
    15     9    10 1   
    16     9    17 1   
    17     9    18 1   
    18     9    19 1   
    19    11    16 1   
@<TRIPOS>SUBSTRUCTURE
     1 V55         1 TEMP              0 ****  ****    0 ROOT
