@<TRIPOS>MOLECULE
V55
   19    19     1     0     0
SMALL
No Charge or Current Charge


@<TRIPOS>ATOM
      1 CAI         -1.4740    -0.1250     0.0110 ca         1 V55      -0.211600
      2 CAG         -0.2760    -0.8730    -0.0140 ca         1 V55      -0.111000
      3 CAK          0.9750    -0.2140    -0.0670 ca         1 V55       0.028100
      4 CAJ          1.0140     1.1950    -0.0940 ca         1 V55       0.155100
      5 CAF         -0.1730     1.9400    -0.0690 ca         1 V55      -0.146000
      6 OAB         -3.8800    -0.2540     0.0920 o          1 V55      -0.522100
      7 CAE         -1.4150     1.2860    -0.0160 ca         1 V55      -0.036000
      8 CAD         -2.8000    -0.8380     0.0680 c          1 V55       0.588500
      9 CAA          2.2440    -2.3400    -0.0700 c3         1 V55       0.156900
     10 OAH          2.1780    -0.9010    -0.0940 os         1 V55      -0.367100
     11 OAC          2.2180     1.8340    -0.1450 oh         1 V55      -0.526100
     12 HAG         -0.3330    -1.9580     0.0080 ha         1 V55       0.118000
     13 HAD         -2.7550    -1.9490     0.0870 h4         1 V55      -0.016800
     14 HAE         -2.3290     1.8770     0.0030 ha         1 V55       0.137000
     15 HAF         -0.1320     3.0260    -0.0900 ha         1 V55       0.137000
     16 HAC          2.9020     1.1280    -0.1550 ho         1 V55       0.487000
     17 HAA1         3.2890    -2.6730    -0.0980 h1         1 V55       0.043367
     18 HAA2         1.7850    -2.7370     0.8450 h1         1 V55       0.043367
     19 HAA3         1.7270    -2.7690    -0.9380 h1         1 V55       0.043367
@<TRIPOS>BOND
     1     1     2 ar  
     2     1     7 ar  
     3     1     8 1   
     4     2     3 ar  
     5     2    12 1   
     6     3     4 ar  
     7     3    10 1   
     8     4     5 ar  
     9     4    11 1   
    10     5     7 ar  
    11     5    15 1   
    12     6     8 2   
    13     7    14 1   
    14     8    13 1   
    15     9    10 1   
    16     9    17 1   
    17     9    18 1   
    18     9    19 1   
    19    11    16 1   
@<TRIPOS>SUBSTRUCTURE
     1 V55         1 TEMP              0 ****  ****    0 ROOT
