@<TRIPOS>MOLECULE
V56
   69    70     1     0     0
SMALL
No Charge or Current Charge


@<TRIPOS>ATOM
      1 O01         74.9650   -51.0630   134.1170 o          1 V56      -0.551000
      2 C02         75.0580   -52.2750   134.0000 c          1 V56       0.639100
      3 N17         72.6150   -51.1320   129.9740 ns         1 V56      -0.506900
      4 C18         71.3970   -51.9270   129.8300 c3         1 V56       0.107000
      5 C19         71.4050   -53.1500   130.7730 c3         1 V56      -0.102400
      6 C20         71.5020   -52.7870   132.2760 c3         1 V56      -0.079400
      7 C21         71.6570   -54.0260   133.1920 c3         1 V56      -0.073400
      8 C22         71.8050   -53.7040   134.7060 c3         1 V56      -0.075400
      9 O25         74.1480   -53.1920   134.4230 os         1 V56      -0.461100
     10 C26         72.9480   -52.7170   135.0600 c3         1 V56       0.231600
     11 C27         73.1970   -52.5890   136.5620 ca         1 V56      -0.098300
     12 C28         73.6950   -53.6800   137.3060 ca         1 V56      -0.085000
     13 C29         73.9250   -53.5540   138.6880 ca         1 V56      -0.106000
     14 C30         73.6610   -52.3350   139.3360 ca         1 V56      -0.097000
     15 C31         73.1690   -51.2450   138.6000 ca         1 V56       0.122000
     16 Cl32        72.8400   -49.7180   139.4100 cl         1 V56      -0.213000
     17 C33         72.9380   -51.3690   137.2200 ca         1 V56      -0.091000
     18 N03         75.9440   -52.9090   133.1800 ns         1 V56      -0.463900
     19 C04         76.8100   -52.2140   132.2050 c3         1 V56       0.045700
     20 C09         76.0300   -52.0260   130.8710 c          1 V56       0.579100
     21 O24         74.9960   -52.6290   130.6130 o          1 V56      -0.600100
     22 C05         78.1440   -52.9790   131.9910 c3         1 V56      -0.082400
     23 C06         78.9910   -53.2190   133.2730 c3         1 V56      -0.061700
     24 C07         80.2400   -54.0730   132.9560 c3         1 V56      -0.089600
     25 C08         79.3920   -51.9020   133.9800 c3         1 V56      -0.089600
     26 N10         76.5550   -51.0940   130.0000 ns         1 V56      -0.490900
     27 C11         75.9620   -50.7300   128.6980 c3         1 V56       0.100700
     28 C14         75.2850   -49.3350   128.7720 c3         1 V56      -0.067400
     29 C15         74.1310   -49.2070   129.8050 c3         1 V56      -0.156400
     30 C16         72.8480   -49.9240   129.3650 c          1 V56       0.601100
     31 O23         72.0640   -49.4370   128.5640 o          1 V56      -0.616100
     32 C12         77.0200   -50.7940   127.5640 c3         1 V56       0.146600
     33 O13         77.6020   -52.1050   127.4740 oh         1 V56      -0.659000
     34 H2          70.5270   -51.2940   130.0540 h1         1 V56       0.055700
     35 H3          71.3160   -52.2670   128.7880 h1         1 V56       0.055700
     36 H4          70.4940   -53.7360   130.6010 hc         1 V56       0.057200
     37 H5          72.2500   -53.7950   130.5010 hc         1 V56       0.057200
     38 H6          72.3630   -52.1260   132.4230 hc         1 V56       0.035200
     39 H7          70.6090   -52.2210   132.5730 hc         1 V56       0.035200
     40 H8          70.7870   -54.6810   133.0560 hc         1 V56       0.050200
     41 H9          72.5300   -54.6040   132.8640 hc         1 V56       0.050200
     42 H10         70.8600   -53.2870   135.0760 hc         1 V56       0.054200
     43 H11         71.9580   -54.6450   135.2460 hc         1 V56       0.054200
     44 H12         72.6560   -51.7360   134.6610 h1         1 V56       0.079700
     45 H13         73.9080   -54.6260   136.8120 ha         1 V56       0.128000
     46 H14         74.3090   -54.3990   139.2540 ha         1 V56       0.119000
     47 H15         73.8380   -52.2340   140.4040 ha         1 V56       0.130000
     48 H16         72.5580   -50.5150   136.6650 ha         1 V56       0.130000
     49 H1          73.3670   -51.5120   130.5420 hn         1 V56       0.310500
     50 H17         75.8240   -53.9100   133.1020 hn         1 V56       0.329500
     51 H18         77.0350   -51.2080   132.5810 h1         1 V56       0.076700
     52 H19         77.9150   -53.9490   131.5310 hc         1 V56       0.060200
     53 H20         78.7540   -52.4320   131.2610 hc         1 V56       0.060200
     54 H21         78.3840   -53.7980   133.9800 hc         1 V56       0.051700
     55 H22         80.8060   -54.2880   133.8700 hc         1 V56       0.035367
     56 H23         79.9510   -55.0310   132.5060 hc         1 V56       0.035367
     57 H24         80.9040   -53.5510   132.2560 hc         1 V56       0.035367
     58 H25         80.0230   -52.1090   134.8530 hc         1 V56       0.035367
     59 H26         79.9530   -51.2480   133.3010 hc         1 V56       0.035367
     60 H27         78.5090   -51.3580   134.3350 hc         1 V56       0.035367
     61 H28         77.4200   -50.6440   130.2750 hn         1 V56       0.306500
     62 H29         75.1870   -51.4650   128.4410 h1         1 V56       0.118700
     63 H32         76.0530   -48.5910   129.0190 hc         1 V56       0.051700
     64 H33         74.9030   -49.0630   127.7800 hc         1 V56       0.051700
     65 H34         74.4710   -49.6040   130.7680 hc         1 V56       0.065200
     66 H35         73.8990   -48.1410   129.9150 hc         1 V56       0.065200
     67 H30         77.8010   -50.0470   127.7580 h1         1 V56       0.026200
     68 H31         76.5390   -50.5310   126.6120 h1         1 V56       0.026200
     69 H36         78.2690   -52.0750   126.7520 ho         1 V56       0.441000
@<TRIPOS>BOND
     1     1     2 2   
     2     2     9 1   
     3     2    18 1   
     4     3     4 1   
     5     3    30 1   
     6     3    49 1   
     7     4     5 1   
     8     4    34 1   
     9     4    35 1   
    10     5     6 1   
    11     5    36 1   
    12     5    37 1   
    13     6     7 1   
    14     6    38 1   
    15     6    39 1   
    16     7     8 1   
    17     7    40 1   
    18     7    41 1   
    19     8    10 1   
    20     8    42 1   
    21     8    43 1   
    22     9    10 1   
    23    10    11 1   
    24    10    44 1   
    25    11    12 ar  
    26    11    17 ar  
    27    12    13 ar  
    28    12    45 1   
    29    13    14 ar  
    30    13    46 1   
    31    14    15 ar  
    32    14    47 1   
    33    15    16 1   
    34    15    17 ar  
    35    17    48 1   
    36    18    19 1   
    37    18    50 1   
    38    19    20 1   
    39    19    22 1   
    40    19    51 1   
    41    20    21 2   
    42    20    26 1   
    43    22    23 1   
    44    22    52 1   
    45    22    53 1   
    46    23    24 1   
    47    23    25 1   
    48    23    54 1   
    49    24    55 1   
    50    24    56 1   
    51    24    57 1   
    52    25    58 1   
    53    25    59 1   
    54    25    60 1   
    55    26    27 1   
    56    26    61 1   
    57    27    28 1   
    58    27    32 1   
    59    27    62 1   
    60    28    29 1   
    61    28    63 1   
    62    28    64 1   
    63    29    30 1   
    64    29    65 1   
    65    29    66 1   
    66    30    31 2   
    67    32    33 1   
    68    32    67 1   
    69    32    68 1   
    70    33    69 1   
@<TRIPOS>SUBSTRUCTURE
     1 V56         1 TEMP              0 ****  ****    0 ROOT
