@<TRIPOS>MOLECULE
V56
   69    70     1     0     0
SMALL
abcg2


@<TRIPOS>ATOM
      1 O01         74.8170   -51.1590   133.5850 o          1 V56      -0.551000
      2 C02         75.0690   -52.3450   133.7210 c          1 V56       0.639100
      3 N17         71.9910   -50.6350   130.2790 ns         1 V56      -0.506900
      4 C18         70.9250   -51.6160   130.1460 c3         1 V56       0.107000
      5 C19         71.2320   -52.9140   130.8960 c3         1 V56      -0.102400
      6 C20         71.3910   -52.7030   132.3990 c3         1 V56      -0.079400
      7 C21         71.7700   -53.9680   133.1630 c3         1 V56      -0.073400
      8 C22         71.9720   -53.7380   134.6630 c3         1 V56      -0.075400
      9 O25         74.2980   -53.2210   134.4020 os         1 V56      -0.461100
     10 C26         73.0730   -52.7290   134.9890 c3         1 V56       0.231600
     11 C27         73.2430   -52.5300   136.4740 ca         1 V56      -0.098300
     12 C28         74.0500   -53.3680   137.2420 ca         1 V56      -0.085000
     13 C29         74.1330   -53.1900   138.6180 ca         1 V56      -0.106000
     14 C30         73.4110   -52.1830   139.2490 ca         1 V56      -0.097000
     15 C31         72.6100   -51.3570   138.4720 ca         1 V56       0.122000
     16 CL32        71.6970   -50.0740   139.2420 cl         1 V56      -0.213000
     17 C33         72.5200   -51.5160   137.0970 ca         1 V56      -0.091000
     18 N03         76.1570   -52.9640   133.2130 ns         1 V56      -0.463900
     19 C04         76.9700   -52.3160   132.2060 c3         1 V56       0.045700
     20 C09         76.1750   -52.0970   130.9100 c          1 V56       0.579100
     21 O24         75.3450   -52.9200   130.5250 o          1 V56      -0.600100
     22 C05         78.2060   -53.1640   131.8900 c3         1 V56      -0.082400
     23 C06         79.1430   -53.4240   133.0770 c3         1 V56      -0.061700
     24 C07         80.2800   -54.3460   132.6310 c3         1 V56      -0.089600
     25 C08         79.6960   -52.1270   133.6690 c3         1 V56      -0.089600
     26 N10         76.5010   -50.9840   130.2340 ns         1 V56      -0.490900
     27 C11         76.0330   -50.6790   128.8880 c3         1 V56       0.100700
     28 C14         75.2190   -49.3820   128.8530 c3         1 V56      -0.067400
     29 C15         73.9970   -49.3960   129.7610 c3         1 V56      -0.156400
     30 C16         72.9280   -50.3960   129.3410 c          1 V56       0.601100
     31 O23         72.9040   -50.9130   128.2210 o          1 V56      -0.616100
     32 C12         77.2080   -50.6060   127.9260 c3         1 V56       0.146600
     33 O13         77.8600   -51.8760   127.8970 oh         1 V56      -0.659000
     34 H2          70.0030   -51.1750   130.5330 h1         1 V56       0.055700
     35 H3          70.7870   -51.8100   129.0850 h1         1 V56       0.055700
     36 H4          70.4200   -53.6240   130.7040 hc         1 V56       0.057200
     37 H5          72.1460   -53.3550   130.4870 hc         1 V56       0.057200
     38 H6          72.1570   -51.9420   132.5640 hc         1 V56       0.035200
     39 H7          70.4600   -52.2930   132.8080 hc         1 V56       0.035200
     40 H8          70.9870   -54.7210   133.0330 hc         1 V56       0.050200
     41 H9          72.6830   -54.3920   132.7350 hc         1 V56       0.050200
     42 H10         71.0490   -53.3540   135.1070 hc         1 V56       0.054200
     43 H11         72.1990   -54.6820   135.1660 hc         1 V56       0.054200
     44 H12         72.8450   -51.7670   134.5390 h1         1 V56       0.079700
     45 H13         74.6240   -54.1490   136.7610 ha         1 V56       0.128000
     46 H14         74.7590   -53.8440   139.2110 ha         1 V56       0.119000
     47 H15         73.4700   -52.0390   140.3190 ha         1 V56       0.130000
     48 H16         71.8930   -50.8560   136.5100 ha         1 V56       0.130000
     49 H1          72.0900   -50.1660   131.1650 hn         1 V56       0.310500
     50 H17         76.1580   -53.9730   133.2420 hn         1 V56       0.329500
     51 H18         77.2810   -51.3440   132.5890 h1         1 V56       0.076700
     52 H19         77.8690   -54.1190   131.4740 hc         1 V56       0.060200
     53 H20         78.7640   -52.6570   131.0990 hc         1 V56       0.060200
     54 H21         78.5740   -53.9410   133.8560 hc         1 V56       0.051700
     55 H22         80.9420   -54.5790   133.4680 hc         1 V56       0.035367
     56 H23         79.8930   -55.2860   132.2310 hc         1 V56       0.035367
     57 H24         80.8790   -53.8660   131.8520 hc         1 V56       0.035367
     58 H25         80.3920   -52.3430   134.4820 hc         1 V56       0.035367
     59 H26         80.2350   -51.5580   132.9060 hc         1 V56       0.035367
     60 H27         78.9050   -51.4910   134.0690 hc         1 V56       0.035367
     61 H28         77.1890   -50.3670   130.6420 hn         1 V56       0.306500
     62 H29         75.3950   -51.5100   128.5960 h1         1 V56       0.118700
     63 H32         75.8640   -48.5480   129.1430 hc         1 V56       0.051700
     64 H33         74.9050   -49.2030   127.8240 hc         1 V56       0.051700
     65 H34         74.2850   -49.6100   130.7930 hc         1 V56       0.065200
     66 H35         73.5330   -48.4060   129.7720 hc         1 V56       0.065200
     67 H30         77.9040   -49.8200   128.2420 h1         1 V56       0.026200
     68 H31         76.8310   -50.3440   126.9320 h1         1 V56       0.026200
     69 H36         78.6700   -51.7910   127.3820 ho         1 V56       0.441000
@<TRIPOS>BOND
     1     1     2 2   
     2     2     9 1   
     3     2    18 1   
     4     3     4 1   
     5     3    30 1   
     6     3    49 1   
     7     4     5 1   
     8     4    34 1   
     9     4    35 1   
    10     5     6 1   
    11     5    36 1   
    12     5    37 1   
    13     6     7 1   
    14     6    38 1   
    15     6    39 1   
    16     7     8 1   
    17     7    40 1   
    18     7    41 1   
    19     8    10 1   
    20     8    42 1   
    21     8    43 1   
    22     9    10 1   
    23    10    11 1   
    24    10    44 1   
    25    11    12 ar  
    26    11    17 ar  
    27    12    13 ar  
    28    12    45 1   
    29    13    14 ar  
    30    13    46 1   
    31    14    15 ar  
    32    14    47 1   
    33    15    16 1   
    34    15    17 ar  
    35    17    48 1   
    36    18    19 1   
    37    18    50 1   
    38    19    20 1   
    39    19    22 1   
    40    19    51 1   
    41    20    21 2   
    42    20    26 1   
    43    22    23 1   
    44    22    52 1   
    45    22    53 1   
    46    23    24 1   
    47    23    25 1   
    48    23    54 1   
    49    24    55 1   
    50    24    56 1   
    51    24    57 1   
    52    25    58 1   
    53    25    59 1   
    54    25    60 1   
    55    26    27 1   
    56    26    61 1   
    57    27    28 1   
    58    27    32 1   
    59    27    62 1   
    60    28    29 1   
    61    28    63 1   
    62    28    64 1   
    63    29    30 1   
    64    29    65 1   
    65    29    66 1   
    66    30    31 2   
    67    32    33 1   
    68    32    67 1   
    69    32    68 1   
    70    33    69 1   
@<TRIPOS>SUBSTRUCTURE
     1 V56         1 TEMP              0 ****  ****    0 ROOT
