@<TRIPOS>MOLECULE
V57
   53    56     1     0     0
SMALL
abcg2


@<TRIPOS>ATOM
      1 C02         -1.9070    15.9380   -24.7770 ca         1 V57       0.616900
      2 C03         -1.3930    17.0580   -24.0510 ca         1 V57      -0.210000
      3 C04         -2.0800    17.5060   -22.9710 ca         1 V57      -0.029000
      4 C05         -3.2820    16.8630   -22.5810 ca         1 V57      -0.131000
      5 C06         -4.0520    17.2660   -21.4730 ca         1 V57      -0.072000
      6 C07         -5.2040    16.6030   -21.1490 ca         1 V57      -0.130000
      7 C08         -5.6400    15.5050   -21.9240 ca         1 V57      -0.071300
      8 C09         -6.9230    14.8460   -21.5070 c3         1 V57       0.210900
      9 C11         -8.2380    12.9390   -22.0200 ca         1 V57       0.142100
     10 C12         -9.1990    13.2570   -21.0640 ca         1 V57      -0.200000
     11 C13        -10.2840    12.4040   -20.8930 ca         1 V57      -0.076000
     12 C14        -10.4150    11.2520   -21.6500 ca         1 V57      -0.150000
     13 C15         -9.4560    10.9380   -22.6130 ca         1 V57      -0.052300
     14 C16         -9.6250     9.7060   -23.4720 c3         1 V57       0.212100
     15 C18         -7.6110     8.4650   -22.9630 c3         1 V57       0.159800
     16 C19         -6.2640     8.0130   -23.5200 c3         1 V57      -0.129700
     17 C20         -5.4390     7.3250   -22.4710 ca         1 V57       0.351300
     18 C21         -5.2620     5.9440   -22.4740 ca         1 V57      -0.162000
     19 C22         -4.5180     5.3550   -21.4640 ca         1 V57      -0.072000
     20 C23         -3.9720     6.1630   -20.4790 ca         1 V57      -0.169000
     21 C24         -4.2010     7.5290   -20.5580 ca         1 V57       0.341900
     22 C26         -8.3740    11.7850   -22.7910 ca         1 V57      -0.118000
     23 C27         -4.9040    15.0990   -23.0080 ca         1 V57      -0.072000
     24 C28         -3.7080    15.7650   -23.3640 ca         1 V57       0.325000
     25 N01         -1.2030    15.4600   -25.8340 nv         1 V57      -1.071900
     26 N17         -8.3700     9.1840   -23.9670 n7         1 V57      -0.867400
     27 N25         -4.9120     8.0990   -21.5220 nb         1 V57      -0.667000
     28 N29         -3.0190    15.3250   -24.4430 nb         1 V57      -0.755000
     29 O10         -7.1390    13.6850   -22.2680 os         1 V57      -0.341100
     30 H1          -0.4720    17.5300   -24.3700 ha         1 V57       0.119000
     31 H2          -1.7180    18.3540   -22.4020 ha         1 V57       0.115000
     32 H3          -3.7180    18.1070   -20.8770 ha         1 V57       0.111000
     33 H4          -5.7870    16.9180   -20.2910 ha         1 V57       0.111000
     34 H5          -7.7510    15.5550   -21.6360 h1         1 V57       0.041200
     35 H6          -6.8750    14.6070   -20.4360 h1         1 V57       0.041200
     36 H7          -9.1230    14.1430   -20.4490 ha         1 V57       0.114000
     37 H8         -11.0290    12.6470   -20.1470 ha         1 V57       0.108000
     38 H9         -11.2590    10.5910   -21.4940 ha         1 V57       0.109000
     39 H10        -10.2410     9.9720   -24.3360 h1         1 V57       0.036700
     40 H11        -10.2060     8.9620   -22.9050 h1         1 V57       0.036700
     41 H12         -7.4350     9.1320   -22.1150 h1         1 V57       0.041700
     42 H13         -8.1580     7.5940   -22.5670 h1         1 V57       0.041700
     43 H14         -6.4210     7.3420   -24.3680 hc         1 V57       0.060200
     44 H15         -5.7250     8.8880   -23.8900 hc         1 V57       0.060200
     45 H16         -5.7020     5.3440   -23.2590 ha         1 V57       0.120000
     46 H17         -4.3660     4.2840   -21.4480 ha         1 V57       0.117000
     47 H18         -3.3830     5.7520   -19.6710 ha         1 V57       0.122000
     48 H19         -3.7870     8.1940   -19.8080 h4         1 V57       0.019100
     49 H20         -7.6170    11.5470   -23.5280 ha         1 V57       0.148000
     50 H21         -5.2150    14.2610   -23.6170 ha         1 V57       0.147000
     51 H22         -1.6680    14.8180   -26.4530 hn         1 V57       0.479000
     52 H23         -0.5070    16.0470   -26.2610 hn         1 V57       0.479000
     53 H24         -8.5540     8.5700   -24.7510 hn         1 V57       0.410000
@<TRIPOS>BOND
     1     1     2 ar  
     2     1    25 1   
     3     1    28 ar  
     4     2     3 ar  
     5     2    30 1   
     6     3     4 ar  
     7     3    31 1   
     8     4     5 ar  
     9     4    24 ar  
    10     5     6 ar  
    11     5    32 1   
    12     6     7 ar  
    13     6    33 1   
    14     7     8 1   
    15     7    23 ar  
    16     8    29 1   
    17     8    34 1   
    18     8    35 1   
    19     9    10 ar  
    20     9    22 ar  
    21     9    29 1   
    22    10    11 ar  
    23    10    36 1   
    24    11    12 ar  
    25    11    37 1   
    26    12    13 ar  
    27    12    38 1   
    28    13    14 1   
    29    13    22 ar  
    30    14    26 1   
    31    14    39 1   
    32    14    40 1   
    33    15    16 1   
    34    15    26 1   
    35    15    41 1   
    36    15    42 1   
    37    16    17 1   
    38    16    43 1   
    39    16    44 1   
    40    17    18 ar  
    41    17    27 ar  
    42    18    19 ar  
    43    18    45 1   
    44    19    20 ar  
    45    19    46 1   
    46    20    21 ar  
    47    20    47 1   
    48    21    27 ar  
    49    21    48 1   
    50    22    49 1   
    51    23    24 ar  
    52    23    50 1   
    53    24    28 ar  
    54    25    51 1   
    55    25    52 1   
    56    26    53 1   
@<TRIPOS>SUBSTRUCTURE
     1 V57         1 TEMP              0 ****  ****    0 ROOT
