@<TRIPOS>MOLECULE
V57
   53    56     1     0     0
SMALL
No Charge or Current Charge


@<TRIPOS>ATOM
      1 C02         -1.3320    16.9250   -24.1410 ca         1 V57       0.616900
      2 C03         -1.7410    18.1950   -24.5520 ca         1 V57      -0.210000
      3 C04         -3.0380    18.6100   -24.2230 ca         1 V57      -0.029000
      4 C05         -3.8510    17.7180   -23.4990 ca         1 V57      -0.131000
      5 C06         -5.1620    18.0870   -23.1440 ca         1 V57      -0.072000
      6 C07         -5.9720    17.1960   -22.4220 ca         1 V57      -0.130000
      7 C08         -5.4780    15.9320   -22.0500 ca         1 V57      -0.071300
      8 C09         -6.3520    14.9610   -21.2680 c3         1 V57       0.210900
      9 C11         -7.7040    12.9590   -21.7670 ca         1 V57       0.142100
     10 C12         -8.1010    12.8010   -20.4210 ca         1 V57      -0.200000
     11 C13         -8.9470    11.7380   -20.0600 ca         1 V57      -0.076000
     12 C14         -9.4000    10.8350   -21.0360 ca         1 V57      -0.150000
     13 C15         -9.0110    10.9850   -22.3810 ca         1 V57      -0.052300
     14 C16         -9.5000    10.0050   -23.4460 c3         1 V57       0.212100
     15 C18         -7.7770     8.2630   -22.9460 c3         1 V57       0.159800
     16 C19         -6.6780     7.4160   -23.6070 c3         1 V57      -0.129700
     17 C20         -6.0100     6.4850   -22.6100 ca         1 V57       0.351300
     18 C21         -6.6420     5.2960   -22.1980 ca         1 V57      -0.162000
     19 C22         -6.0000     4.4600   -21.2710 ca         1 V57      -0.072000
     20 C23         -4.7420     4.8540   -20.7900 ca         1 V57      -0.169000
     21 C24         -4.1780     6.0560   -21.2510 ca         1 V57       0.341900
     22 C26         -8.1620    12.0520   -22.7360 ca         1 V57      -0.118000
     23 C27         -4.1650    15.5690   -22.4100 ca         1 V57      -0.072000
     24 C28         -3.3350    16.4460   -23.1330 ca         1 V57       0.325000
     25 N01         -0.1280    16.4130   -24.3990 nv         1 V57      -1.071900
     26 N17         -8.4090     9.1420   -23.9500 n7         1 V57      -0.867400
     27 N25         -4.7960     6.8630   -22.1450 nb         1 V57      -0.667000
     28 N29         -2.0770    16.0640   -23.4620 nb         1 V57      -0.755000
     29 O10         -6.8740    13.9810   -22.1810 os         1 V57      -0.341100
     30 H1          -1.0710    18.8430   -25.1090 ha         1 V57       0.119000
     31 H2          -3.4010    19.5920   -24.5200 ha         1 V57       0.115000
     32 H3          -5.5550    19.0620   -23.4270 ha         1 V57       0.111000
     33 H4          -6.9850    17.4890   -22.1540 ha         1 V57       0.111000
     34 H5          -7.1680    15.5100   -20.7810 h1         1 V57       0.041200
     35 H6          -5.7490    14.4790   -20.4870 h1         1 V57       0.041200
     36 H7          -7.7660    13.4840   -19.6460 ha         1 V57       0.114000
     37 H8          -9.2530    11.6150   -19.0230 ha         1 V57       0.108000
     38 H9         -10.0540    10.0150   -20.7450 ha         1 V57       0.109000
     39 H10         -9.9300    10.5820   -24.2750 h1         1 V57       0.036700
     40 H11        -10.3100     9.3900   -23.0310 h1         1 V57       0.036700
     41 H12         -7.3270     8.8560   -22.1380 h1         1 V57       0.041700
     42 H13         -8.5240     7.5960   -22.4940 h1         1 V57       0.041700
     43 H14         -7.1140     6.8250   -24.4210 hc         1 V57       0.060200
     44 H15         -5.9380     8.0810   -24.0680 hc         1 V57       0.060200
     45 H16         -7.6180     5.0290   -22.5950 ha         1 V57       0.120000
     46 H17         -6.4650     3.5350   -20.9340 ha         1 V57       0.117000
     47 H18         -4.2050     4.2420   -20.0710 ha         1 V57       0.122000
     48 H19         -3.2030     6.3840   -20.8930 h4         1 V57       0.019100
     49 H20         -7.8500    12.1730   -23.7700 ha         1 V57       0.148000
     50 H21         -3.7800    14.5930   -22.1290 ha         1 V57       0.147000
     51 H22         -0.0640    15.4130   -24.2560 hn         1 V57       0.479000
     52 H23          0.3790    16.7880   -25.1930 hn         1 V57       0.479000
     53 H24         -8.8000     8.5480   -24.6910 hn         1 V57       0.410000
@<TRIPOS>BOND
     1     1     2 ar  
     2     1    25 1   
     3     1    28 ar  
     4     2     3 ar  
     5     2    30 1   
     6     3     4 ar  
     7     3    31 1   
     8     4     5 ar  
     9     4    24 ar  
    10     5     6 ar  
    11     5    32 1   
    12     6     7 ar  
    13     6    33 1   
    14     7     8 1   
    15     7    23 ar  
    16     8    29 1   
    17     8    34 1   
    18     8    35 1   
    19     9    10 ar  
    20     9    22 ar  
    21     9    29 1   
    22    10    11 ar  
    23    10    36 1   
    24    11    12 ar  
    25    11    37 1   
    26    12    13 ar  
    27    12    38 1   
    28    13    14 1   
    29    13    22 ar  
    30    14    26 1   
    31    14    39 1   
    32    14    40 1   
    33    15    16 1   
    34    15    26 1   
    35    15    41 1   
    36    15    42 1   
    37    16    17 1   
    38    16    43 1   
    39    16    44 1   
    40    17    18 ar  
    41    17    27 ar  
    42    18    19 ar  
    43    18    45 1   
    44    19    20 ar  
    45    19    46 1   
    46    20    21 ar  
    47    20    47 1   
    48    21    27 ar  
    49    21    48 1   
    50    22    49 1   
    51    23    24 ar  
    52    23    50 1   
    53    24    28 ar  
    54    25    51 1   
    55    25    52 1   
    56    26    53 1   
@<TRIPOS>SUBSTRUCTURE
     1 V57         1 TEMP              0 ****  ****    0 ROOT
