@<TRIPOS>MOLECULE
V58
   76    81     1     0     0
SMALL
No Charge or Current Charge


@<TRIPOS>ATOM
      1 C10         41.6910    -9.7220    -3.0210 ca         1 V58      -0.331600
      2 N12         40.4170   -11.7270    -3.3680 nb         1 V58      -0.251000
      3 C13         41.5890   -12.3770    -3.3630 ca         1 V58       0.408900
      4 C15         42.4000   -14.8350    -3.5440 ca         1 V58       0.225000
      5 C17         44.6180   -15.7780    -3.9680 ca         1 V58      -0.194000
      6 C20         46.4750   -18.0380    -3.3950 c6         1 V58       0.197800
      7 C21         47.0580   -19.3370    -2.7950 c6         1 V58      -0.080900
      8 C22         46.7850   -20.5770    -3.6990 c6         1 V58       0.182500
      9 C26         45.2520   -20.6500    -3.9750 c6         1 V58      -0.080900
     10 C28         42.8180   -17.2390    -3.2710 ca         1 V58      -0.224000
     11 C02         41.6830    -8.2570    -2.7640 c          1 V58       0.627700
     12 C04         42.6930    -6.6070    -1.2910 ca         1 V58       0.106100
     13 C05         42.7340    -6.3220     0.0850 ca         1 V58      -0.109000
     14 C06         43.0020    -5.0140     0.5270 ca         1 V58      -0.098500
     15 C07         43.2410    -3.9920    -0.4080 ca         1 V58      -0.111000
     16 C08         43.2170    -4.2780    -1.7840 ca         1 V58      -0.098500
     17 C09         42.9480    -5.5850    -2.2270 ca         1 V58      -0.109000
     18 C11         40.4720   -10.3940    -3.2010 ca         1 V58       0.195900
     19 C16         43.7480   -14.6750    -3.9290 ca         1 V58      -0.040000
     20 C18         44.1610   -17.0640    -3.6360 ca         1 V58       0.321000
     21 C27         44.7050   -19.3270    -4.5570 c6         1 V58       0.197800
     22 C29         41.9330   -16.1390    -3.2270 ca         1 V58       0.137100
     23 C31         40.0320   -17.5720    -2.5320 c3         1 V58       0.151900
     24 C33         42.8720   -10.4950    -3.0560 ca         1 V58       0.337800
     25 C34         44.2190    -9.9230    -2.9590 cc         1 V58      -0.240000
     26 C35         44.5980    -8.8020    -3.6940 cd         1 V58      -0.095100
     27 C37         46.4530    -9.6980    -2.8060 ca         1 V58      -0.061200
     28 C38         45.4190   -10.5130    -2.4340 ca         1 V58      -0.051800
     29 C39         45.6230   -11.6710    -1.6680 ca         1 V58      -0.047000
     30 C40         46.9460   -11.9870    -1.2920 ca         1 V58      -0.141000
     31 C41         48.0180   -11.1490    -1.6790 ca         1 V58      -0.095000
     32 C42         47.7760    -9.9890    -2.4460 ca         1 V58      -0.128000
     33 N14         41.4880   -13.7560    -3.4900 nu         1 V58      -0.909900
     34 N19         45.0230   -18.1810    -3.6700 nh         1 V58      -0.786400
     35 N32         42.8020   -11.8310    -3.2090 nb         1 V58      -0.265000
     36 N36         45.9970    -8.6260    -3.5590 na         1 V58      -0.221700
     37 O01         40.8720    -7.5110    -3.2950 o          1 V58      -0.476000
     38 O03         42.4520    -7.9020    -1.6880 os         1 V58      -0.353200
     39 O30         40.5990   -16.2930    -2.8730 os         1 V58      -0.359100
     40 H1          45.6480   -15.6250    -4.2770 ha         1 V58       0.120000
     41 H2          47.0110   -17.7920    -4.3240 h1         1 V58       0.038200
     42 H3          46.6500   -17.2170    -2.6840 h1         1 V58       0.038200
     43 H4          46.6310   -19.5020    -1.7970 hc         1 V58       0.056450
     44 H5          48.1350   -19.1810    -2.6580 hc         1 V58       0.056450
     45 H6          47.2880   -20.4040    -4.6630 h1         1 V58       0.017700
     46 H7          47.4840   -23.9560    -3.4450 h1         1 V58       0.031200
     47 H8          45.9420   -23.2660    -3.9440 h1         1 V58       0.031200
     48 H9          47.4030   -22.9680    -4.9210 h1         1 V58       0.031200
     49 H10         44.7170   -20.8900    -3.0470 hc         1 V58       0.056450
     50 H11         45.0190   -21.4450    -4.6920 hc         1 V58       0.056450
     51 H12         42.4820   -18.2370    -3.0140 ha         1 V58       0.122000
     52 H13         42.5540    -7.1140     0.8070 ha         1 V58       0.121500
     53 H14         43.0280    -4.7950     1.5920 ha         1 V58       0.115500
     54 H15         43.4500    -2.9800    -0.0660 ha         1 V58       0.115000
     55 H16         43.4110    -3.4880    -2.5070 ha         1 V58       0.115500
     56 H17         42.9460    -5.7990    -3.2930 ha         1 V58       0.121500
     57 H18         39.5190    -9.8660    -3.1840 h4         1 V58       0.038100
     58 H19         44.1320   -13.7040    -4.2210 ha         1 V58       0.138000
     59 H20         49.1110   -22.7730    -2.3830 h1         1 V58       0.031200
     60 H21         49.3650   -21.5430    -3.6410 h1         1 V58       0.031200
     61 H22         48.9680   -21.0670    -1.9690 h1         1 V58       0.031200
     62 H23         45.1440   -19.1610    -5.5520 h1         1 V58       0.038200
     63 H24         43.6190   -19.4260    -4.6950 h1         1 V58       0.038200
     64 H25         38.9680   -17.4630    -2.2890 h1         1 V58       0.043700
     65 H26         40.1180   -18.2740    -3.3720 h1         1 V58       0.043700
     66 H27         40.5370   -18.0030    -1.6580 h1         1 V58       0.043700
     67 H28         44.0000    -8.1450    -4.3200 h4         1 V58       0.216000
     68 H29         44.7920   -12.3050    -1.3690 ha         1 V58       0.139000
     69 H30         47.1400   -12.8780    -0.6990 ha         1 V58       0.113000
     70 H31         49.0350   -11.4000    -1.3850 ha         1 V58       0.110000
     71 H32         48.5950    -9.3410    -2.7480 ha         1 V58       0.112000
     72 H33         40.5240   -14.0780    -3.3890 hn         1 V58       0.523000
     73 H35         46.5620    -7.8940    -3.9800 hn         1 V58       0.352000
     74 N23         47.3180   -21.8520    -3.0970 n3         1 V58      -0.714600
     75 C24         47.0200   -23.0690    -3.8970 c3         1 V58       0.148100
     76 C25         48.7640   -21.8010    -2.7580 c3         1 V58       0.148100
@<TRIPOS>BOND
     1     1    11 1   
     2     1    18 ar  
     3     1    24 ar  
     4     2     3 ar  
     5     2    18 ar  
     6     3    33 1   
     7     3    35 ar  
     8     4    19 ar  
     9     4    22 ar  
    10     4    33 1   
    11     5    19 ar  
    12     5    20 ar  
    13     5    40 1   
    14     6     7 1   
    15     6    34 1   
    16     6    41 1   
    17     6    42 1   
    18     7     8 1   
    19     7    43 1   
    20     7    44 1   
    21     8     9 1   
    22     8    45 1   
    23     8    74 1   
    24     9    21 1   
    25     9    49 1   
    26     9    50 1   
    27    10    20 ar  
    28    10    22 ar  
    29    10    51 1   
    30    11    37 2   
    31    11    38 1   
    32    12    13 ar  
    33    12    17 ar  
    34    12    38 1   
    35    13    14 ar  
    36    13    52 1   
    37    14    15 ar  
    38    14    53 1   
    39    15    16 ar  
    40    15    54 1   
    41    16    17 ar  
    42    16    55 1   
    43    17    56 1   
    44    18    57 1   
    45    19    58 1   
    46    20    34 1   
    47    21    34 1   
    48    21    62 1   
    49    21    63 1   
    50    22    39 1   
    51    23    39 1   
    52    23    64 1   
    53    23    65 1   
    54    23    66 1   
    55    24    25 1   
    56    24    35 ar  
    57    25    26 2   
    58    25    28 1   
    59    26    36 1   
    60    26    67 1   
    61    27    28 ar  
    62    27    32 ar  
    63    27    36 1   
    64    28    29 ar  
    65    29    30 ar  
    66    29    68 1   
    67    30    31 ar  
    68    30    69 1   
    69    31    32 ar  
    70    31    70 1   
    71    32    71 1   
    72    33    72 1   
    73    36    73 1   
    74    46    75 1   
    75    47    75 1   
    76    48    75 1   
    77    59    76 1   
    78    60    76 1   
    79    61    76 1   
    80    74    75 1   
    81    74    76 1   
@<TRIPOS>SUBSTRUCTURE
     1 V58         1 TEMP              0 ****  ****    0 ROOT
