@<TRIPOS>MOLECULE
V58
   76    81     1     0     0
SMALL
abcg2


@<TRIPOS>ATOM
      1 C10         41.9020    -9.7280    -3.3180 ca         1 V58      -0.331600
      2 N12         40.4790   -11.5140    -4.0710 nb         1 V58      -0.251000
      3 C13         41.5630   -12.3180    -3.9460 ca         1 V58       0.408900
      4 C15         42.2680   -14.6890    -4.0350 ca         1 V58       0.225000
      5 C17         44.4220   -15.7160    -4.4440 ca         1 V58      -0.194000
      6 C20         46.3090   -17.7760    -3.9830 c6         1 V58       0.197800
      7 C21         47.2450   -18.7990    -3.3520 c6         1 V58      -0.080900
      8 C22         46.7630   -20.2360    -3.5470 c6         1 V58       0.182500
      9 C26         45.3220   -20.3240    -3.0430 c6         1 V58      -0.080900
     10 C28         42.7640   -16.8980    -3.1630 ca         1 V58      -0.224000
     11 C02         41.8650    -8.3480    -2.8090 c          1 V58       0.627700
     12 C04         42.7050    -6.8910    -1.1440 ca         1 V58       0.106100
     13 C05         41.9360    -6.6860    -0.0090 ca         1 V58      -0.109000
     14 C06         42.0010    -5.4540     0.6350 ca         1 V58      -0.098500
     15 C07         42.8260    -4.4480     0.1420 ca         1 V58      -0.111000
     16 C08         43.5910    -4.6740    -0.9980 ca         1 V58      -0.098500
     17 C09         43.5350    -5.9020    -1.6500 ca         1 V58      -0.109000
     18 C11         40.6770   -10.2490    -3.7480 ca         1 V58       0.195900
     19 C16         43.5320   -14.6590    -4.5980 ca         1 V58      -0.040000
     20 C18         44.0590   -16.8540    -3.7130 ca         1 V58       0.321000
     21 C27         44.4310   -19.2730    -3.6880 c6         1 V58       0.197800
     22 C29         41.8850   -15.8370    -3.3160 ca         1 V58       0.137100
     23 C31         40.1630   -16.9520    -2.0770 c3         1 V58       0.151900
     24 C33         43.0040   -10.6200    -3.3560 ca         1 V58       0.337800
     25 C34         44.3920   -10.2460    -3.1610 cc         1 V58      -0.240000
     26 C35         44.9630    -9.0160    -3.4250 cd         1 V58      -0.095100
     27 C37         46.6530   -10.3270    -2.7540 ca         1 V58      -0.061200
     28 C38         45.4740   -11.1150    -2.7420 ca         1 V58      -0.051800
     29 C39         45.5660   -12.4550    -2.3410 ca         1 V58      -0.047000
     30 C40         46.8030   -12.9590    -1.9710 ca         1 V58      -0.141000
     31 C41         47.9580   -12.1570    -1.9900 ca         1 V58      -0.095000
     32 C42         47.8970   -10.8290    -2.3810 ca         1 V58      -0.128000
     33 N14         41.3380   -13.6360    -4.1670 nu         1 V58      -0.909900
     34 N19         44.9460   -17.9160    -3.4860 nh         1 V58      -0.786400
     35 N32         42.7970   -11.9090    -3.6510 nb         1 V58      -0.265000
     36 N36         46.2990    -9.0630    -3.1840 na         1 V58      -0.221700
     37 O01         41.1240    -7.4840    -3.2240 o          1 V58      -0.476000
     38 O03         42.6870    -8.1550    -1.7430 os         1 V58      -0.353200
     39 O30         40.6270   -15.8100    -2.7950 os         1 V58      -0.359100
     40 H1          45.3920   -15.6420    -4.9110 ha         1 V58       0.120000
     41 H2          46.3390   -17.8730    -5.0800 h1         1 V58       0.038200
     42 H3          46.6710   -16.7790    -3.7360 h1         1 V58       0.038200
     43 H4          47.3300   -18.6020    -2.2790 hc         1 V58       0.056450
     44 H5          48.2310   -18.6500    -3.7920 hc         1 V58       0.056450
     45 H6          46.7570   -20.4520    -4.6330 h1         1 V58       0.017700
     46 H7          47.8860   -23.2480    -2.5340 h1         1 V58       0.031200
     47 H8          46.2090   -22.7140    -2.5150 h1         1 V58       0.031200
     48 H9          47.0630   -22.8790    -4.0630 h1         1 V58       0.031200
     49 H10         45.3180   -20.1950    -1.9560 hc         1 V58       0.056450
     50 H11         44.8870   -21.2990    -3.2610 hc         1 V58       0.056450
     51 H12         42.4640   -17.7500    -2.5750 ha         1 V58       0.122000
     52 H13         41.3010    -7.4810     0.3580 ha         1 V58       0.121500
     53 H14         41.4040    -5.2840     1.5230 ha         1 V58       0.115500
     54 H15         42.8740    -3.4910     0.6460 ha         1 V58       0.115000
     55 H16         44.2360    -3.8950    -1.3840 ha         1 V58       0.115500
     56 H17         44.1250    -6.0900    -2.5360 ha         1 V58       0.121500
     57 H18         39.8150    -9.5920    -3.7950 h4         1 V58       0.038100
     58 H19         43.8320   -13.7910    -5.1660 ha         1 V58       0.138000
     59 H20         49.6150   -21.8860    -2.8390 h1         1 V58       0.031200
     60 H21         49.1040   -21.2790    -4.4270 h1         1 V58       0.031200
     61 H22         49.4620   -20.1520    -3.1010 h1         1 V58       0.031200
     62 H23         44.3460   -19.4760    -4.7680 h1         1 V58       0.038200
     63 H24         43.4320   -19.3520    -3.2690 h1         1 V58       0.038200
     64 H25         39.1440   -16.7200    -1.7770 h1         1 V58       0.043700
     65 H26         40.1670   -17.8410    -2.7120 h1         1 V58       0.043700
     66 H27         40.7750   -17.1320    -1.1910 h1         1 V58       0.043700
     67 H28         44.5130    -8.1170    -3.8080 h4         1 V58       0.216000
     68 H29         44.6900   -13.0840    -2.3430 ha         1 V58       0.139000
     69 H30         46.8850   -13.9950    -1.6670 ha         1 V58       0.113000
     70 H31         48.9090   -12.5840    -1.6980 ha         1 V58       0.110000
     71 H32         48.7800   -10.2020    -2.3990 ha         1 V58       0.112000
     72 H33         40.3640   -13.8910    -4.2330 hn         1 V58       0.523000
     73 H35         46.9360    -8.2960    -3.3280 hn         1 V58       0.352000
     74 N23         47.6420   -21.2010    -2.8660 n3         1 V58      -0.714600
     75 C24         47.1690   -22.5760    -3.0070 c3         1 V58       0.148100
     76 C25         49.0220   -21.1190    -3.3370 c3         1 V58       0.148100
@<TRIPOS>BOND
     1     1    11 1   
     2     1    18 ar  
     3     1    24 ar  
     4     2     3 ar  
     5     2    18 ar  
     6     3    33 1   
     7     3    35 ar  
     8     4    19 ar  
     9     4    22 ar  
    10     4    33 1   
    11     5    19 ar  
    12     5    20 ar  
    13     5    40 1   
    14     6     7 1   
    15     6    34 1   
    16     6    41 1   
    17     6    42 1   
    18     7     8 1   
    19     7    43 1   
    20     7    44 1   
    21     8     9 1   
    22     8    45 1   
    23     8    74 1   
    24     9    21 1   
    25     9    49 1   
    26     9    50 1   
    27    10    20 ar  
    28    10    22 ar  
    29    10    51 1   
    30    11    37 2   
    31    11    38 1   
    32    12    13 ar  
    33    12    17 ar  
    34    12    38 1   
    35    13    14 ar  
    36    13    52 1   
    37    14    15 ar  
    38    14    53 1   
    39    15    16 ar  
    40    15    54 1   
    41    16    17 ar  
    42    16    55 1   
    43    17    56 1   
    44    18    57 1   
    45    19    58 1   
    46    20    34 1   
    47    21    34 1   
    48    21    62 1   
    49    21    63 1   
    50    22    39 1   
    51    23    39 1   
    52    23    64 1   
    53    23    65 1   
    54    23    66 1   
    55    24    25 1   
    56    24    35 ar  
    57    25    26 2   
    58    25    28 1   
    59    26    36 1   
    60    26    67 1   
    61    27    28 ar  
    62    27    32 ar  
    63    27    36 1   
    64    28    29 ar  
    65    29    30 ar  
    66    29    68 1   
    67    30    31 ar  
    68    30    69 1   
    69    31    32 ar  
    70    31    70 1   
    71    32    71 1   
    72    33    72 1   
    73    36    73 1   
    74    46    75 1   
    75    47    75 1   
    76    48    75 1   
    77    59    76 1   
    78    60    76 1   
    79    61    76 1   
    80    74    75 1   
    81    74    76 1   
@<TRIPOS>SUBSTRUCTURE
     1 V58         1 TEMP              0 ****  ****    0 ROOT
