@<TRIPOS>MOLECULE
V59
   57    61     1     0     0
SMALL
abcg2


@<TRIPOS>ATOM
      1 O1          -4.4570    -2.3190    43.6160 o          1 V59      -0.562100
      2 C1          -4.0420    -1.9150    42.5380 c          1 V59       0.605100
      3 N1          -2.9310    -2.4510    41.9500 ns         1 V59      -0.474400
      4 C2          -2.0380    -3.2990    42.5770 cc         1 V59       0.512300
      5 N2          -0.9670    -3.7190    41.9880 nd         1 V59      -0.359000
      6 N3          -0.1520    -4.4620    42.8160 nd         1 V59      -0.418000
      7 C3          -0.6430    -4.5750    44.0240 cc         1 V59       0.658300
      8 N4          -0.0410    -5.2290    45.0360 nu         1 V59      -0.936100
      9 C4           1.2550    -5.8810    44.8970 c5         1 V59       0.240500
     10 C5           1.6190    -6.5730    46.2120 c5         1 V59      -0.116400
     11 C6           2.1750    -5.4430    47.0820 c5         1 V59       0.235800
     12 N5           2.7480    -4.5210    46.1010 nh         1 V59      -0.809300
     13 C7           3.5740    -3.5050    46.4330 ca         1 V59       0.567900
     14 C8           4.2110    -2.7090    45.4480 ca         1 V59      -0.183000
     15 C9           5.0250    -1.7010    45.8820 ca         1 V59      -0.076000
     16 C10          5.1790    -1.5230    47.2640 ca         1 V59       0.216900
     17 N6           4.5670    -2.2940    48.1480 nb         1 V59      -0.277000
     18 N7           3.7650    -3.2790    47.7500 nb         1 V59      -0.419000
     19 C11          2.3970    -4.8720    44.7270 c5         1 V59       0.205800
     20 S1          -2.2010    -3.7880    44.2450 ss         1 V59      -0.248800
     21 C12         -4.6370    -0.7290    41.8190 c3         1 V59      -0.102100
     22 C13         -4.0950     0.5760    42.3850 ca         1 V59      -0.050300
     23 C14         -2.9060     0.6040    43.1120 ca         1 V59      -0.176000
     24 C15         -2.4100     1.8060    43.6010 ca         1 V59       0.141100
     25 O2          -1.2400     1.8790    44.3230 os         1 V59      -0.258200
     26 C16         -0.6910     0.6940    44.8030 ca         1 V59       0.084100
     27 C17          0.3520     0.0950    44.1130 ca         1 V59      -0.112500
     28 C18          0.9230    -1.0670    44.6230 ca         1 V59      -0.099500
     29 C19          0.4500    -1.6200    45.8080 ca         1 V59      -0.112000
     30 C20         -0.5980    -1.0080    46.4890 ca         1 V59      -0.099500
     31 C21         -1.1750     0.1530    45.9880 ca         1 V59      -0.112500
     32 C22         -3.0820     3.0000    43.3610 ca         1 V59      -0.130000
     33 C23         -4.2650     2.9690    42.6340 ca         1 V59      -0.076000
     34 C24         -4.7780     1.7680    42.1520 ca         1 V59      -0.134000
     35 H1          -2.6330    -2.1000    41.0500 hn         1 V59       0.344500
     36 H2          -0.4870    -5.2240    45.9380 hn         1 V59       0.507000
     37 H3           1.2200    -6.5710    44.0540 h1         1 V59       0.088700
     38 H4           0.7710    -7.0820    46.6680 hc         1 V59       0.067700
     39 H5           2.3960    -7.3110    46.0130 hc         1 V59       0.067700
     40 H6           1.3900    -4.9480    47.6630 h1         1 V59       0.061200
     41 H7           2.9350    -5.7880    47.7820 h1         1 V59       0.061200
     42 H8           4.0590    -2.8980    44.3960 ha         1 V59       0.129000
     43 H9           5.5430    -1.0570    45.1840 ha         1 V59       0.127000
     44 H10          5.8110    -0.7430    47.6700 h4         1 V59       0.028100
     45 H11          3.2400    -5.3350    44.2030 h1         1 V59       0.065200
     46 H12          2.0770    -4.0010    44.1580 h1         1 V59       0.065200
     47 H13         -5.7190    -0.7610    41.9470 hc         1 V59       0.078700
     48 H14         -4.4260    -0.7810    40.7480 hc         1 V59       0.078700
     49 H15         -2.3560    -0.3030    43.3060 ha         1 V59       0.127000
     50 H16          0.7030     0.5350    43.1880 ha         1 V59       0.129000
     51 H17          1.7360    -1.5410    44.0890 ha         1 V59       0.118000
     52 H18          0.8910    -2.5290    46.1960 ha         1 V59       0.122000
     53 H19         -0.9710    -1.4370    47.4100 ha         1 V59       0.118000
     54 H20         -1.9950     0.6390    46.5000 ha         1 V59       0.129000
     55 H21         -2.6810     3.9280    43.7480 ha         1 V59       0.133000
     56 H22         -4.7990     3.8930    42.4480 ha         1 V59       0.119000
     57 H23         -5.7070     1.7580    41.5960 ha         1 V59       0.116000
@<TRIPOS>BOND
     1     1     2 2   
     2     2     3 1   
     3     2    21 1   
     4     3     4 1   
     5     3    35 1   
     6     4     5 2   
     7     4    20 1   
     8     5     6 1   
     9     6     7 2   
    10     7     8 1   
    11     7    20 1   
    12     8     9 1   
    13     8    36 1   
    14     9    10 1   
    15     9    19 1   
    16     9    37 1   
    17    10    11 1   
    18    10    38 1   
    19    10    39 1   
    20    11    12 1   
    21    11    40 1   
    22    11    41 1   
    23    12    13 1   
    24    12    19 1   
    25    13    14 ar  
    26    13    18 ar  
    27    14    15 ar  
    28    14    42 1   
    29    15    16 ar  
    30    15    43 1   
    31    16    17 ar  
    32    16    44 1   
    33    17    18 ar  
    34    19    45 1   
    35    19    46 1   
    36    21    22 1   
    37    21    47 1   
    38    21    48 1   
    39    22    23 ar  
    40    22    34 ar  
    41    23    24 ar  
    42    23    49 1   
    43    24    25 1   
    44    24    32 ar  
    45    25    26 1   
    46    26    27 ar  
    47    26    31 ar  
    48    27    28 ar  
    49    27    50 1   
    50    28    29 ar  
    51    28    51 1   
    52    29    30 ar  
    53    29    52 1   
    54    30    31 ar  
    55    30    53 1   
    56    31    54 1   
    57    32    33 ar  
    58    32    55 1   
    59    33    34 ar  
    60    33    56 1   
    61    34    57 1   
@<TRIPOS>SUBSTRUCTURE
     1 V59         1 TEMP              0 ****  ****    0 ROOT
