@<TRIPOS>MOLECULE
V59
   57    61     1     0     0
SMALL
No Charge or Current Charge


@<TRIPOS>ATOM
      1 O1          -4.7130    -2.1230    43.9530 o          1 V59      -0.562100
      2 C1          -4.3120    -1.9280    42.8160 c          1 V59       0.605100
      3 N1          -3.3150    -2.6680    42.2290 ns         1 V59      -0.474400
      4 C2          -2.3820    -3.4790    42.8270 cc         1 V59       0.512300
      5 N2          -1.4980    -4.1010    42.0640 nd         1 V59      -0.359000
      6 N3          -0.5750    -4.8070    42.8130 nd         1 V59      -0.418000
      7 C3          -0.7970    -4.6660    44.1070 cc         1 V59       0.658300
      8 N4           0.0080    -5.2440    45.0490 nu         1 V59      -0.936100
      9 C4           1.2940    -5.9290    44.7050 c5         1 V59       0.240500
     10 C5           1.6370    -6.7740    45.9620 c5         1 V59      -0.116400
     11 C6           2.1260    -5.7290    47.0060 c5         1 V59       0.235800
     12 N5           2.7700    -4.6910    46.1570 nh         1 V59      -0.809300
     13 C7           3.5860    -3.6580    46.6650 ca         1 V59       0.567900
     14 C8           4.2830    -2.7610    45.8290 ca         1 V59      -0.183000
     15 C9           5.0580    -1.7510    46.4330 ca         1 V59      -0.076000
     16 C10          5.0960    -1.6960    47.8380 ca         1 V59       0.216900
     17 N6           4.4110    -2.5850    48.5980 nb         1 V59      -0.277000
     18 N7           3.6670    -3.5520    48.0160 nb         1 V59      -0.419000
     19 C11          2.4240    -4.8420    44.7110 c5         1 V59       0.205800
     20 S1          -2.1550    -3.6960    44.5400 ss         1 V59      -0.248800
     21 C12         -4.8480    -0.7780    41.9510 c3         1 V59      -0.102100
     22 C13         -4.2530     0.5600    42.3920 ca         1 V59      -0.050300
     23 C14         -2.8850     0.6630    42.7130 ca         1 V59      -0.176000
     24 C15         -2.3480     1.8770    43.1780 ca         1 V59       0.141100
     25 O2          -1.0240     1.9560    43.5490 os         1 V59      -0.258200
     26 C16         -0.3950     0.9300    44.2210 ca         1 V59       0.084100
     27 C17          0.9240     0.5880    43.8750 ca         1 V59      -0.112500
     28 C18          1.5740    -0.4700    44.5370 ca         1 V59      -0.099500
     29 C19          0.9060    -1.1810    45.5500 ca         1 V59      -0.112000
     30 C20         -0.4070    -0.8310    45.9080 ca         1 V59      -0.099500
     31 C21         -1.0570     0.2250    45.2470 ca         1 V59      -0.112500
     32 C22         -3.1640     3.0150    43.2690 ca         1 V59      -0.130000
     33 C23         -4.5240     2.9300    42.9240 ca         1 V59      -0.076000
     34 C24         -5.0670     1.7050    42.4950 ca         1 V59      -0.134000
     35 H1          -3.1760    -2.4960    41.2440 hn         1 V59       0.344500
     36 H2          -0.1390    -4.8670    45.9800 hn         1 V59       0.507000
     37 H3           1.2570    -6.5190    43.7770 h1         1 V59       0.088700
     38 H4           0.7960    -7.3740    46.3260 hc         1 V59       0.067700
     39 H5           2.4460    -7.4750    45.7280 hc         1 V59       0.067700
     40 H6           1.2880    -5.3070    47.5780 h1         1 V59       0.061200
     41 H7           2.8280    -6.1850    47.7190 h1         1 V59       0.061200
     42 H8           4.2290    -2.8410    44.7490 ha         1 V59       0.129000
     43 H9           5.6140    -1.0320    45.8360 ha         1 V59       0.127000
     44 H10          5.6770    -0.9390    48.3620 h4         1 V59       0.028100
     45 H11          3.2940    -5.1960    44.1410 h1         1 V59       0.065200
     46 H12          2.0800    -3.9030    44.2560 h1         1 V59       0.065200
     47 H13         -5.9380    -0.7530    42.0580 hc         1 V59       0.078700
     48 H14         -4.5900    -0.9460    40.8990 hc         1 V59       0.078700
     49 H15         -2.2320    -0.1990    42.6220 ha         1 V59       0.127000
     50 H16          1.4370     1.1360    43.0880 ha         1 V59       0.129000
     51 H17          2.5920    -0.7380    44.2640 ha         1 V59       0.118000
     52 H18          1.4040    -1.9990    46.0630 ha         1 V59       0.122000
     53 H19         -0.9200    -1.3780    46.6960 ha         1 V59       0.118000
     54 H20         -2.0730     0.4920    45.5290 ha         1 V59       0.129000
     55 H21         -2.7450     3.9560    43.6180 ha         1 V59       0.133000
     56 H22         -5.1590     3.8100    42.9990 ha         1 V59       0.119000
     57 H23         -6.1250     1.6490    42.2440 ha         1 V59       0.116000
@<TRIPOS>BOND
     1     1     2 2   
     2     2     3 1   
     3     2    21 1   
     4     3     4 1   
     5     3    35 1   
     6     4     5 2   
     7     4    20 1   
     8     5     6 1   
     9     6     7 2   
    10     7     8 1   
    11     7    20 1   
    12     8     9 1   
    13     8    36 1   
    14     9    10 1   
    15     9    19 1   
    16     9    37 1   
    17    10    11 1   
    18    10    38 1   
    19    10    39 1   
    20    11    12 1   
    21    11    40 1   
    22    11    41 1   
    23    12    13 1   
    24    12    19 1   
    25    13    14 ar  
    26    13    18 ar  
    27    14    15 ar  
    28    14    42 1   
    29    15    16 ar  
    30    15    43 1   
    31    16    17 ar  
    32    16    44 1   
    33    17    18 ar  
    34    19    45 1   
    35    19    46 1   
    36    21    22 1   
    37    21    47 1   
    38    21    48 1   
    39    22    23 ar  
    40    22    34 ar  
    41    23    24 ar  
    42    23    49 1   
    43    24    25 1   
    44    24    32 ar  
    45    25    26 1   
    46    26    27 ar  
    47    26    31 ar  
    48    27    28 ar  
    49    27    50 1   
    50    28    29 ar  
    51    28    51 1   
    52    29    30 ar  
    53    29    52 1   
    54    30    31 ar  
    55    30    53 1   
    56    31    54 1   
    57    32    33 ar  
    58    32    55 1   
    59    33    34 ar  
    60    33    56 1   
    61    34    57 1   
@<TRIPOS>SUBSTRUCTURE
     1 V59         1 TEMP              0 ****  ****    0 ROOT
