@<TRIPOS>MOLECULE
V5B
    9     8     1     0     0
SMALL
abcg2


@<TRIPOS>ATOM
      1 C6         -10.9820    19.8430   -21.8740 c3         1 V5B       0.201900
      2 O7         -11.8400    19.0690   -22.6970 os         1 V5B      -0.598700
      3 S13        -13.4550    19.3540   -22.5700 s6         1 V5B       1.500300
      4 O14        -13.6270    20.7820   -22.8510 o          1 V5B      -0.714533
      5 O15        -13.9720    18.4570   -23.6000 o          1 V5B      -0.714533
      6 O16        -13.8160    18.9770   -21.2020 o          1 V5B      -0.714533
      7 H1          -9.9740    19.4620   -22.0290 h1         1 V5B       0.013033
      8 H2         -10.9990    20.9010   -22.1430 h1         1 V5B       0.013033
      9 H3         -11.2270    19.7450   -20.8140 h1         1 V5B       0.013033
@<TRIPOS>BOND
     1     1     2 1   
     2     1     7 1   
     3     1     8 1   
     4     1     9 1   
     5     2     3 1   
     6     3     4 1   
     7     3     5 1   
     8     3     6 1   
@<TRIPOS>SUBSTRUCTURE
     1 V5B         1 TEMP              0 ****  ****    0 ROOT
