@<TRIPOS>MOLECULE
V5B
    9     8     1     0     0
SMALL
No Charge or Current Charge


@<TRIPOS>ATOM
      1 C6         -10.9810    19.8260   -21.8650 c3         1 V5B       0.201900
      2 O7         -11.8390    19.0580   -22.7190 os         1 V5B      -0.598700
      3 S13        -13.4510    19.3560   -22.5920 s6         1 V5B       1.500300
      4 O14        -13.5830    20.7790   -22.9370 o          1 V5B      -0.714533
      5 O15        -14.0530    18.4370   -23.5690 o          1 V5B      -0.714533
      6 O16        -13.7670    19.0420   -21.1910 o          1 V5B      -0.714533
      7 H1          -9.9340    19.5450   -22.0340 h1         1 V5B       0.013033
      8 H2         -11.0760    20.9010   -22.0670 h1         1 V5B       0.013033
      9 H3         -11.2080    19.6460   -20.8060 h1         1 V5B       0.013033
@<TRIPOS>BOND
     1     1     2 1   
     2     1     7 1   
     3     1     8 1   
     4     1     9 1   
     5     2     3 1   
     6     3     4 1   
     7     3     5 1   
     8     3     6 1   
@<TRIPOS>SUBSTRUCTURE
     1 V5B         1 TEMP              0 ****  ****    0 ROOT
