@<TRIPOS>MOLECULE
V5C
   29    29     1     0     0
SMALL
abcg2


@<TRIPOS>ATOM
      1 N1          -0.4880    17.2440   -40.9090 n          1 V5C      -0.420800
      2 C7          -0.0230    18.3830   -41.6930 c3         1 V5C       0.089300
      3 C8          -1.1170    16.1570   -41.6390 c3         1 V5C       0.115000
      4 N2          -1.2190    13.2150   -43.4800 n1         1 V5C      -0.454000
      5 C9          -0.0770    15.1250   -42.1250 c3         1 V5C      -0.045300
      6 C1          -1.4820    14.2200   -34.5110 cc         1 V5C       0.452700
      7 C5          -0.7660    16.1060   -38.7760 ce         1 V5C      -0.301200
      8 C6          -0.3890    17.3090   -39.5530 c          1 V5C       0.605300
      9 C4          -0.8290    16.1530   -37.4390 cf         1 V5C      -0.160800
     10 C3          -1.4920    13.7680   -36.9110 cc         1 V5C      -0.243000
     11 C2          -1.1630    15.0510   -36.5560 cd         1 V5C       0.313800
     12 C10         -0.7000    14.0540   -42.8880 c1         1 V5C       0.294900
     13 O            0.0230    18.3370   -39.0000 o          1 V5C      -0.601100
     14 N           -1.1660    15.2810   -35.1890 nd         1 V5C      -0.631000
     15 S           -1.8090    12.8300   -35.5170 ss         1 V5C      -0.040400
     16 H1          -0.7730    19.1790   -41.7160 h1         1 V5C       0.045367
     17 H2           0.8930    18.7820   -41.2640 h1         1 V5C       0.045367
     18 H3           0.1710    18.0540   -42.7110 h1         1 V5C       0.045367
     19 H4          -1.6340    16.5820   -42.5000 h1         1 V5C       0.060200
     20 H5          -1.8710    15.6700   -41.0280 h1         1 V5C       0.060200
     21 H6           0.4420    14.6830   -41.2720 hc         1 V5C       0.079200
     22 H7           0.6710    15.6100   -42.7540 hc         1 V5C       0.079200
     23 H8          -0.9700    15.1800   -39.2930 ha         1 V5C       0.176000
     24 H9          -0.6120    17.0920   -36.9440 ha         1 V5C       0.217000
     25 H10         -1.5640    13.3440   -37.8990 h4         1 V5C       0.162000
     26 H11         -1.3610    15.1300   -32.6050 hc         1 V5C       0.061700
     27 H12         -2.5580    13.8230   -32.7030 hc         1 V5C       0.061700
     28 H13         -0.8400    13.4340   -32.6260 hc         1 V5C       0.061700
     29 C           -1.5660    14.1460   -33.0240 c3         1 V5C      -0.130400
@<TRIPOS>BOND
     1     1     2 1   
     2     1     3 1   
     3     1     8 1   
     4     2    16 1   
     5     2    17 1   
     6     2    18 1   
     7     3     5 1   
     8     3    19 1   
     9     3    20 1   
    10     4    12 3   
    11     5    12 1   
    12     5    21 1   
    13     5    22 1   
    14     6    14 2   
    15     6    15 1   
    16     6    29 1   
    17     7     8 1   
    18     7     9 2   
    19     7    23 1   
    20     8    13 2   
    21     9    11 1   
    22     9    24 1   
    23    10    11 2   
    24    10    15 1   
    25    10    25 1   
    26    11    14 1   
    27    26    29 1   
    28    27    29 1   
    29    28    29 1   
@<TRIPOS>SUBSTRUCTURE
     1 V5C         1 TEMP              0 ****  ****    0 ROOT
