@<TRIPOS>MOLECULE
V5C
   29    29     1     0     0
SMALL
No Charge or Current Charge


@<TRIPOS>ATOM
      1 N1          -0.4780    17.3040   -40.9750 n          1 V5C      -0.420800
      2 C7          -0.0500    18.4540   -41.8070 c3         1 V5C       0.089300
      3 C8          -1.1480    16.1840   -41.6790 c3         1 V5C       0.115000
      4 N2          -1.3970    13.1190   -43.3650 n1         1 V5C      -0.454000
      5 C9          -0.1640    15.0840   -42.1280 c3         1 V5C      -0.045300
      6 C1          -1.5040    14.1700   -34.5050 cc         1 V5C       0.452700
      7 C5          -0.6980    16.1810   -38.7260 ce         1 V5C      -0.301200
      8 C6          -0.3400    17.3700   -39.5670 c          1 V5C       0.605300
      9 C4          -0.6370    16.1550   -37.3580 cf         1 V5C      -0.160800
     10 C3          -1.1190    13.7340   -36.8450 cc         1 V5C      -0.243000
     11 C2          -0.9810    15.0500   -36.4690 cd         1 V5C       0.313800
     12 C10         -0.8380    13.9850   -42.8240 c1         1 V5C       0.294900
     13 O            0.0840    18.3880   -39.0370 o          1 V5C      -0.601100
     14 N           -1.2030    15.3010   -35.1260 nd         1 V5C      -0.631000
     15 S           -1.5420    12.7300   -35.4890 ss         1 V5C      -0.040400
     16 H1          -0.7250    19.3030   -41.6390 h1         1 V5C       0.045367
     17 H2           0.9730    18.7480   -41.5380 h1         1 V5C       0.045367
     18 H3          -0.0670    18.1890   -42.8720 h1         1 V5C       0.045367
     19 H4          -1.6510    16.5850   -42.5700 h1         1 V5C       0.060200
     20 H5          -1.9440    15.7600   -41.0530 h1         1 V5C       0.060200
     21 H6           0.3650    14.6780   -41.2580 hc         1 V5C       0.079200
     22 H7           0.5900    15.5140   -42.7950 hc         1 V5C       0.079200
     23 H8          -1.0130    15.2760   -39.2340 ha         1 V5C       0.176000
     24 H9          -0.3400    17.0650   -36.8340 ha         1 V5C       0.217000
     25 H10         -0.9960    13.2940   -37.8240 h4         1 V5C       0.162000
     26 H11         -1.6790    15.0740   -32.5570 hc         1 V5C       0.061700
     27 H12         -2.8340    13.7640   -32.8710 hc         1 V5C       0.061700
     28 H13         -1.1300    13.3870   -32.5420 hc         1 V5C       0.061700
     29 C           -1.8030    14.0960   -33.0370 c3         1 V5C      -0.130400
@<TRIPOS>BOND
     1     1     2 1   
     2     1     3 1   
     3     1     8 1   
     4     2    16 1   
     5     2    17 1   
     6     2    18 1   
     7     3     5 1   
     8     3    19 1   
     9     3    20 1   
    10     4    12 3   
    11     5    12 1   
    12     5    21 1   
    13     5    22 1   
    14     6    14 2   
    15     6    15 1   
    16     6    29 1   
    17     7     8 1   
    18     7     9 2   
    19     7    23 1   
    20     8    13 2   
    21     9    11 1   
    22     9    24 1   
    23    10    11 2   
    24    10    15 1   
    25    10    25 1   
    26    11    14 1   
    27    26    29 1   
    28    27    29 1   
    29    28    29 1   
@<TRIPOS>SUBSTRUCTURE
     1 V5C         1 TEMP              0 ****  ****    0 ROOT
