@<TRIPOS>MOLECULE
V5D
   61    64     1     0     0
SMALL
abcg2


@<TRIPOS>ATOM
      1 C02         83.2150   112.1170    88.1270 ca         1 V5D       0.598900
      2 C03         82.1590   112.7680    87.4650 ca         1 V5D      -0.232000
      3 C04         81.7540   112.2700    86.2470 ca         1 V5D      -0.035000
      4 C05         82.3860   111.1500    85.7090 ca         1 V5D      -0.215000
      5 C06         83.4190   110.5740    86.4330 ca         1 V5D       0.399300
      6 C07         84.1750   109.3850    85.9130 c3         1 V5D      -0.126700
      7 C08         85.5870   109.7500    85.4540 c3         1 V5D      -0.071400
      8 C09         86.4100   108.5280    85.0720 c3         1 V5D      -0.079400
      9 C10         87.8120   108.8920    84.6080 c3         1 V5D       0.162800
     10 C12         89.9420   107.9870    83.8820 c3         1 V5D       0.207100
     11 C13         90.7370   106.7200    83.6980 ca         1 V5D      -0.056300
     12 C14         91.5610   106.5390    82.5970 ca         1 V5D      -0.143000
     13 C15         92.2870   105.3590    82.4630 ca         1 V5D      -0.083000
     14 C16         92.1840   104.3530    83.4060 ca         1 V5D      -0.139000
     15 C17         91.3530   104.5290    84.5140 ca         1 V5D       0.133100
     16 C19         90.3340   103.5320    86.4240 c3         1 V5D       0.208900
     17 C20         88.9200   103.4340    85.9060 ca         1 V5D      -0.109300
     18 C21         87.9340   104.3140    86.3930 ca         1 V5D      -0.112000
     19 C22         86.6450   104.2360    85.9310 ca         1 V5D      -0.074000
     20 C23         86.2900   103.2770    84.9670 ca         1 V5D      -0.124000
     21 C24         84.9770   103.1470    84.4450 ca         1 V5D      -0.031000
     22 C25         84.7070   102.1940    83.5190 ca         1 V5D      -0.209000
     23 C26         85.7660   101.3290    83.0920 ca         1 V5D       0.616900
     24 C29         87.2690   102.3810    84.4740 ca         1 V5D       0.322000
     25 C30         88.5870   102.4870    84.9650 ca         1 V5D      -0.076000
     26 C31         90.6390   105.7130    84.6570 ca         1 V5D      -0.165000
     27 N01         83.6300   112.5310    89.3600 nv         1 V5D      -1.054900
     28 N11         88.5920   107.7030    84.3240 n7         1 V5D      -0.869400
     29 N27         85.5080   100.3940    82.1450 nv         1 V5D      -1.071900
     30 N28         86.9910   101.4260    83.5540 nb         1 V5D      -0.758000
     31 N32         83.8200   111.0510    87.6120 nb         1 V5D      -0.753000
     32 O18         91.3060   103.5050    85.3960 os         1 V5D      -0.344100
     33 H1          81.6840   113.6350    87.9060 ha         1 V5D       0.120000
     34 H2          80.9450   112.7490    85.7110 ha         1 V5D       0.114000
     35 H3          82.0860   110.7400    84.7550 ha         1 V5D       0.122000
     36 H4          83.6260   108.9280    85.0860 hc         1 V5D       0.052700
     37 H5          84.2410   108.6340    86.7060 hc         1 V5D       0.052700
     38 H6          86.0940   110.2930    86.2570 hc         1 V5D       0.046200
     39 H7          85.5260   110.4390    84.6050 hc         1 V5D       0.046200
     40 H8          85.8990   107.9690    84.2800 hc         1 V5D       0.044200
     41 H9          86.4850   107.8520    85.9300 hc         1 V5D       0.044200
     42 H10         88.3200   109.4520    85.4000 h1         1 V5D       0.027700
     43 H11         87.7460   109.5740    83.7450 h1         1 V5D       0.027700
     44 H12         90.4220   108.6030    84.6500 h1         1 V5D       0.034700
     45 H13         89.9810   108.5800    82.9550 h1         1 V5D       0.034700
     46 H14         91.6360   107.3090    81.8390 ha         1 V5D       0.110000
     47 H15         92.9300   105.2160    81.6030 ha         1 V5D       0.112000
     48 H16         92.7380   103.4290    83.2920 ha         1 V5D       0.125000
     49 H17         90.5650   102.6680    87.0490 h1         1 V5D       0.060200
     50 H18         90.4480   104.4190    87.0550 h1         1 V5D       0.060200
     51 H19         88.2010   105.0640    87.1270 ha         1 V5D       0.116000
     52 H20         85.8890   104.9210    86.2970 ha         1 V5D       0.112000
     53 H21         84.1960   103.8140    84.7910 ha         1 V5D       0.116000
     54 H22         83.7140   102.0760    83.1050 ha         1 V5D       0.119000
     55 H23         89.3320   101.8030    84.5770 ha         1 V5D       0.137000
     56 H24         89.9850   105.8820    85.5000 ha         1 V5D       0.135000
     57 H25         84.5400   112.2110    89.6510 hn         1 V5D       0.468500
     58 H26         83.4230   113.4790    89.6280 hn         1 V5D       0.468500
     59 H27         88.1210   107.1580    83.6100 hn         1 V5D       0.415000
     60 H29         86.1930    99.6710    82.0040 hn         1 V5D       0.479000
     61 H30         84.5540   100.1300    81.9660 hn         1 V5D       0.479000
@<TRIPOS>BOND
     1     1     2 ar  
     2     1    27 1   
     3     1    31 ar  
     4     2     3 ar  
     5     2    33 1   
     6     3     4 ar  
     7     3    34 1   
     8     4     5 ar  
     9     4    35 1   
    10     5     6 1   
    11     5    31 ar  
    12     6     7 1   
    13     6    36 1   
    14     6    37 1   
    15     7     8 1   
    16     7    38 1   
    17     7    39 1   
    18     8     9 1   
    19     8    40 1   
    20     8    41 1   
    21     9    28 1   
    22     9    42 1   
    23     9    43 1   
    24    10    11 1   
    25    10    28 1   
    26    10    44 1   
    27    10    45 1   
    28    11    12 ar  
    29    11    26 ar  
    30    12    13 ar  
    31    12    46 1   
    32    13    14 ar  
    33    13    47 1   
    34    14    15 ar  
    35    14    48 1   
    36    15    26 ar  
    37    15    32 1   
    38    16    17 1   
    39    16    32 1   
    40    16    49 1   
    41    16    50 1   
    42    17    18 ar  
    43    17    25 ar  
    44    18    19 ar  
    45    18    51 1   
    46    19    20 ar  
    47    19    52 1   
    48    20    21 ar  
    49    20    24 ar  
    50    21    22 ar  
    51    21    53 1   
    52    22    23 ar  
    53    22    54 1   
    54    23    29 1   
    55    23    30 ar  
    56    24    25 ar  
    57    24    30 ar  
    58    25    55 1   
    59    26    56 1   
    60    27    57 1   
    61    27    58 1   
    62    28    59 1   
    63    29    60 1   
    64    29    61 1   
@<TRIPOS>SUBSTRUCTURE
     1 V5D         1 TEMP              0 ****  ****    0 ROOT
