@<TRIPOS>MOLECULE
V5D
   61    64     1     0     0
SMALL
No Charge or Current Charge


@<TRIPOS>ATOM
      1 C02         82.4300   111.7740    87.9860 ca         1 V5D       0.598900
      2 C03         81.8940   112.7430    87.1340 ca         1 V5D      -0.232000
      3 C04         82.1250   112.6180    85.7570 ca         1 V5D      -0.035000
      4 C05         82.8860   111.5200    85.3240 ca         1 V5D      -0.215000
      5 C06         83.3810   110.6040    86.2730 ca         1 V5D       0.399300
      6 C07         84.2170   109.4090    85.8350 c3         1 V5D      -0.126700
      7 C08         85.6820   109.7910    85.5230 c3         1 V5D      -0.071400
      8 C09         86.5370   108.5880    85.0650 c3         1 V5D      -0.079400
      9 C10         87.9990   108.9720    84.7590 c3         1 V5D       0.162800
     10 C12         90.1840   107.9900    84.0630 c3         1 V5D       0.207100
     11 C13         90.8440   106.6800    83.6400 ca         1 V5D      -0.056300
     12 C14         91.4360   106.5510    82.3680 ca         1 V5D      -0.143000
     13 C15         92.0320   105.3390    81.9830 ca         1 V5D      -0.083000
     14 C16         92.0310   104.2450    82.8650 ca         1 V5D      -0.139000
     15 C17         91.4380   104.3550    84.1330 ca         1 V5D       0.133100
     16 C19         90.7110   103.1640    86.1870 c3         1 V5D       0.208900
     17 C20         89.2080   103.2240    85.9060 ca         1 V5D      -0.109300
     18 C21         88.3850   104.1100    86.6270 ca         1 V5D      -0.112000
     19 C22         87.0100   104.1800    86.3550 ca         1 V5D      -0.074000
     20 C23         86.4450   103.3580    85.3630 ca         1 V5D      -0.124000
     21 C24         85.0670   103.4300    85.0900 ca         1 V5D      -0.031000
     22 C25         84.5520   102.5890    84.0940 ca         1 V5D      -0.209000
     23 C26         85.4360   101.7340    83.4330 ca         1 V5D       0.616900
     24 C29         87.2550   102.4500    84.6300 ca         1 V5D       0.322000
     25 C30         88.6320   102.3980    84.9180 ca         1 V5D      -0.076000
     26 C31         90.8580   105.5820    84.5230 ca         1 V5D      -0.165000
     27 N01         82.2840   111.7950    89.3120 nv         1 V5D      -1.054900
     28 N11         88.7510   107.7790    84.3420 n7         1 V5D      -0.869400
     29 N27         85.0680   100.8800    82.4770 nv         1 V5D      -1.071900
     30 N28         86.7360   101.6440    83.6720 nb         1 V5D      -0.758000
     31 N32         83.1540   110.7340    87.6000 nb         1 V5D      -0.753000
     32 O18         91.4500   103.2400    84.9500 os         1 V5D      -0.344100
     33 H1          81.3120   113.5700    87.5290 ha         1 V5D       0.120000
     34 H2          81.7290   113.3440    85.0490 ha         1 V5D       0.114000
     35 H3          83.0940   111.3790    84.2670 ha         1 V5D       0.122000
     36 H4          83.7660   108.9580    84.9420 hc         1 V5D       0.052700
     37 H5          84.2050   108.6300    86.6080 hc         1 V5D       0.052700
     38 H6          86.1350   110.2360    86.4180 hc         1 V5D       0.046200
     39 H7          85.6960   110.5610    84.7410 hc         1 V5D       0.046200
     40 H8          86.0840   108.1450    84.1690 hc         1 V5D       0.044200
     41 H9          86.5230   107.8190    85.8470 hc         1 V5D       0.044200
     42 H10         88.4500   109.4120    85.6590 h1         1 V5D       0.027700
     43 H11         88.0160   109.7330    83.9660 h1         1 V5D       0.027700
     44 H12         90.6960   108.3710    84.9570 h1         1 V5D       0.034700
     45 H13         90.3120   108.7370    83.2680 h1         1 V5D       0.034700
     46 H14         91.4330   107.3910    81.6770 ha         1 V5D       0.110000
     47 H15         92.4890   105.2450    81.0010 ha         1 V5D       0.112000
     48 H16         92.4840   103.3040    82.5630 ha         1 V5D       0.125000
     49 H17         90.9330   102.2160    86.6940 h1         1 V5D       0.060200
     50 H18         91.0090   103.9720    86.8680 h1         1 V5D       0.060200
     51 H19         88.8110   104.7530    87.3940 ha         1 V5D       0.116000
     52 H20         86.3880   104.8750    86.9150 ha         1 V5D       0.112000
     53 H21         84.4160   104.1140    85.6320 ha         1 V5D       0.116000
     54 H22         83.4960   102.6020    83.8420 ha         1 V5D       0.119000
     55 H23         89.2590   101.7100    84.3590 ha         1 V5D       0.137000
     56 H24         90.4040   105.7020    85.5000 ha         1 V5D       0.135000
     57 H25         82.9120   111.1820    89.8150 hn         1 V5D       0.468500
     58 H26         82.0700   112.6850    89.7480 hn         1 V5D       0.468500
     59 H27         88.3190   107.4040    83.4900 hn         1 V5D       0.415000
     60 H29         85.7580   100.1690    82.2680 hn         1 V5D       0.479000
     61 H30         84.0980   100.5850    82.4610 hn         1 V5D       0.479000
@<TRIPOS>BOND
     1     1     2 ar  
     2     1    27 1   
     3     1    31 ar  
     4     2     3 ar  
     5     2    33 1   
     6     3     4 ar  
     7     3    34 1   
     8     4     5 ar  
     9     4    35 1   
    10     5     6 1   
    11     5    31 ar  
    12     6     7 1   
    13     6    36 1   
    14     6    37 1   
    15     7     8 1   
    16     7    38 1   
    17     7    39 1   
    18     8     9 1   
    19     8    40 1   
    20     8    41 1   
    21     9    28 1   
    22     9    42 1   
    23     9    43 1   
    24    10    11 1   
    25    10    28 1   
    26    10    44 1   
    27    10    45 1   
    28    11    12 ar  
    29    11    26 ar  
    30    12    13 ar  
    31    12    46 1   
    32    13    14 ar  
    33    13    47 1   
    34    14    15 ar  
    35    14    48 1   
    36    15    26 ar  
    37    15    32 1   
    38    16    17 1   
    39    16    32 1   
    40    16    49 1   
    41    16    50 1   
    42    17    18 ar  
    43    17    25 ar  
    44    18    19 ar  
    45    18    51 1   
    46    19    20 ar  
    47    19    52 1   
    48    20    21 ar  
    49    20    24 ar  
    50    21    22 ar  
    51    21    53 1   
    52    22    23 ar  
    53    22    54 1   
    54    23    29 1   
    55    23    30 ar  
    56    24    25 ar  
    57    24    30 ar  
    58    25    55 1   
    59    26    56 1   
    60    27    57 1   
    61    27    58 1   
    62    28    59 1   
    63    29    60 1   
    64    29    61 1   
@<TRIPOS>SUBSTRUCTURE
     1 V5D         1 TEMP              0 ****  ****    0 ROOT
