@<TRIPOS>MOLECULE
V5E
   53    56     1     0     0
SMALL
No Charge or Current Charge


@<TRIPOS>ATOM
      1 C19          7.9450    14.7140    -5.3300 cc         1 V5E       0.392400
      2 C18          6.0010    15.5720    -4.9290 cd         1 V5E       0.238900
      3 C17          5.8600    14.2210    -4.7230 cc         1 V5E      -0.206300
      4 C16          4.6450    13.4360    -4.3000 c3         1 V5E      -0.030100
      5 C15          3.9840    12.6730    -5.4700 c3         1 V5E       0.230800
      6 C14          1.5540    12.4980    -4.6650 ca         1 V5E       0.451900
      7 C13         -0.1890    17.6000    -6.3300 ca         1 V5E      -0.146000
      8 C12         -0.0130    18.6380    -9.9520 c6         1 V5E       0.126300
      9 C11         -0.7330    18.0810   -11.2170 c6         1 V5E       0.153600
     10 C10         -2.5890    19.5780   -10.8710 c6         1 V5E       0.153600
     11 C9          -1.9090    20.1690    -9.5990 c6         1 V5E       0.126300
     12 C7           0.4650    18.6760    -6.9620 ca         1 V5E      -0.060300
     13 C6           1.8670    18.7740    -6.8800 ca         1 V5E      -0.132000
     14 C5           2.6020    17.8130    -6.1680 ca         1 V5E      -0.091000
     15 C4           1.9380    16.7430    -5.5410 ca         1 V5E      -0.130000
     16 C3           0.5370    16.6220    -5.6290 ca         1 V5E       0.307000
     17 C2           0.1340    14.2810    -4.6460 ca         1 V5E       0.436900
     18 C1          -0.5990    12.3700    -3.6270 ca         1 V5E       0.209900
     19 N           -0.8420    13.6470    -3.9770 nb         1 V5E      -0.278000
     20 C            0.6120    11.7400    -3.9550 ca         1 V5E      -0.271900
     21 O           -1.5880    19.0950   -11.7980 os         1 V5E      -0.450000
     22 N1          -0.1700    15.5820    -5.0140 nu         1 V5E      -0.924900
     23 N2          -0.9880    19.1830    -8.9540 n3         1 V5E      -0.719600
     24 N3           1.3150    13.7690    -5.0180 nb         1 V5E      -0.323000
     25 N4           2.7750    11.9490    -5.0270 nu         1 V5E      -0.922100
     26 N5           7.2950    15.8690    -5.3070 nd         1 V5E      -0.671000
     27 N6           7.1050    13.6860    -4.9770 na         1 V5E      -0.304500
     28 Br           0.9330     9.9180    -3.4380 br         1 V5E      -0.086100
     29 H22          8.9880    14.5600    -5.5820 h5         1 V5E       0.055100
     30 H21          5.2450    16.3410    -4.8250 h4         1 V5E       0.041100
     31 H19          3.9120    14.1160    -3.8510 hc         1 V5E       0.064700
     32 H20          4.9210    12.7190    -3.5170 hc         1 V5E       0.064700
     33 H17          4.7150    11.9610    -5.8780 h1         1 V5E       0.061200
     34 H18          3.7340    13.3800    -6.2740 h1         1 V5E       0.061200
     35 H15         -1.2700    17.5230    -6.4000 ha         1 V5E       0.124000
     36 H14          0.6910    19.4230   -10.2650 h1         1 V5E       0.042700
     37 H11         -1.3400    17.2050   -10.9470 h1         1 V5E       0.050200
     38 H12          0.0110    17.7660   -11.9620 h1         1 V5E       0.050200
     39 H10         -3.1950    20.3500   -11.3650 h1         1 V5E       0.050200
     40 H9          -3.2540    18.7480   -10.5900 h1         1 V5E       0.050200
     41 H8          -1.3570    21.0760    -9.8870 h1         1 V5E       0.042700
     42 H7          -2.6930    20.4800    -8.8930 h1         1 V5E       0.042700
     43 H4           2.3870    19.5980    -7.3650 ha         1 V5E       0.114000
     44 H3           3.6840    17.8990    -6.0980 ha         1 V5E       0.122000
     45 H2           2.5200    16.0250    -4.9750 ha         1 V5E       0.141000
     46 H           -1.3830    11.8490    -3.0790 h4         1 V5E       0.033100
     47 H1          -1.1590    15.7870    -4.8780 hn         1 V5E       0.513000
     48 H16          2.8940    10.9750    -4.7440 hn         1 V5E       0.508000
     49 H23          7.3780    12.7120    -4.9160 hn         1 V5E       0.348000
     50 C8          -0.3420    19.7200    -7.7320 c3         1 V5E       0.214100
     51 H13          0.5840    17.8280    -9.5080 h1         1 V5E       0.042700
     52 H6           0.3130    20.5620    -7.9940 h1         1 V5E       0.040200
     53 H5          -1.1090    20.1170    -7.0530 h1         1 V5E       0.040200
@<TRIPOS>BOND
     1     1    26 2   
     2     1    27 1   
     3     1    29 1   
     4     2     3 2   
     5     2    26 1   
     6     2    30 1   
     7     3     4 1   
     8     3    27 1   
     9     4     5 1   
    10     4    31 1   
    11     4    32 1   
    12     5    25 1   
    13     5    33 1   
    14     5    34 1   
    15     6    20 ar  
    16     6    24 ar  
    17     6    25 1   
    18     7    12 ar  
    19     7    16 ar  
    20     7    35 1   
    21     8     9 1   
    22     8    23 1   
    23     8    36 1   
    24     8    51 1   
    25     9    21 1   
    26     9    37 1   
    27     9    38 1   
    28    10    11 1   
    29    10    21 1   
    30    10    39 1   
    31    10    40 1   
    32    11    23 1   
    33    11    41 1   
    34    11    42 1   
    35    12    13 ar  
    36    12    50 1   
    37    13    14 ar  
    38    13    43 1   
    39    14    15 ar  
    40    14    44 1   
    41    15    16 ar  
    42    15    45 1   
    43    16    22 1   
    44    17    19 ar  
    45    17    22 1   
    46    17    24 ar  
    47    18    19 ar  
    48    18    20 ar  
    49    18    46 1   
    50    20    28 1   
    51    22    47 1   
    52    23    50 1   
    53    25    48 1   
    54    27    49 1   
    55    50    52 1   
    56    50    53 1   
@<TRIPOS>SUBSTRUCTURE
     1 V5E         1 TEMP              0 ****  ****    0 ROOT
