@<TRIPOS>MOLECULE
V5E
   53    56     1     0     0
SMALL
abcg2


@<TRIPOS>ATOM
      1 C19          7.6280    15.1090    -5.2430 cc         1 V5E       0.392400
      2 C18          5.7770    15.8610    -4.5150 cd         1 V5E       0.238900
      3 C17          5.6690    14.4980    -4.4530 cc         1 V5E      -0.206300
      4 C16          4.5550    13.6160    -4.0180 c3         1 V5E      -0.030100
      5 C15          3.9770    12.7840    -5.1680 c3         1 V5E       0.230800
      6 C14          1.5970    12.4600    -4.6760 ca         1 V5E       0.451900
      7 C13          0.1380    17.5000    -6.6390 ca         1 V5E      -0.146000
      8 C12         -0.1810    18.5350   -10.0150 c6         1 V5E       0.126300
      9 C11         -1.2350    17.9970   -10.9630 c6         1 V5E       0.153600
     10 C10         -2.7360    19.6370   -10.2890 c6         1 V5E       0.153600
     11 C9          -1.7130    20.2160    -9.3290 c6         1 V5E       0.126300
     12 C7           0.8690    18.5300    -7.2150 ca         1 V5E      -0.060300
     13 C6           2.2560    18.5010    -7.1350 ca         1 V5E      -0.132000
     14 C5           2.8840    17.4540    -6.4750 ca         1 V5E      -0.091000
     15 C4           2.1580    16.4270    -5.8920 ca         1 V5E      -0.130000
     16 C3           0.7620    16.4410    -5.9760 ca         1 V5E       0.307000
     17 C2           0.1590    14.2060    -5.0070 ca         1 V5E       0.436900
     18 C1          -0.7320    12.3020    -4.2050 ca         1 V5E       0.209900
     19 N           -0.9300    13.5540    -4.5900 nb         1 V5E      -0.278000
     20 C            0.5000    11.6900    -4.2250 ca         1 V5E      -0.271900
     21 O           -2.1200    19.0070   -11.3900 os         1 V5E      -0.450000
     22 N1          -0.0780    15.4820    -5.4160 nu         1 V5E      -0.924900
     23 N2          -0.8170    19.1690    -8.8750 n3         1 V5E      -0.719600
     24 N3           1.3890    13.7220    -5.0530 nb         1 V5E      -0.323000
     25 N4           2.8440    11.9830    -4.7630 nu         1 V5E      -0.922100
     26 N5           6.9990    16.2300    -5.0060 nd         1 V5E      -0.671000
     27 N6           6.8690    14.0390    -4.9260 na         1 V5E      -0.304500
     28 BR           0.6880     9.9010    -3.6730 br         1 V5E      -0.086100
     29 H22          8.6270    15.0100    -5.6390 h5         1 V5E       0.055100
     30 H21          5.0350    16.5870    -4.2200 h4         1 V5E       0.041100
     31 H19          3.7690    14.2450    -3.5970 hc         1 V5E       0.064700
     32 H20          4.8850    12.9440    -3.2200 hc         1 V5E       0.064700
     33 H17          4.7330    12.0990    -5.5530 h1         1 V5E       0.061200
     34 H18          3.6850    13.4360    -5.9900 h1         1 V5E       0.061200
     35 H15         -0.9440    17.5140    -6.7200 ha         1 V5E       0.124000
     36 H14          0.4780    19.2410   -10.5520 h1         1 V5E       0.042700
     37 H11         -1.7880    17.1880   -10.4640 h1         1 V5E       0.050200
     38 H12         -0.7620    17.5800   -11.8530 h1         1 V5E       0.050200
     39 H10         -3.3750    20.4300   -10.6810 h1         1 V5E       0.050200
     40 H9          -3.3740    18.9240    -9.7470 h1         1 V5E       0.050200
     41 H8          -1.1670    21.0380    -9.8220 h1         1 V5E       0.042700
     42 H7          -2.2350    20.6450    -8.4700 h1         1 V5E       0.042700
     43 H4           2.8430    19.2890    -7.5910 ha         1 V5E       0.114000
     44 H3           3.9640    17.4280    -6.4130 ha         1 V5E       0.122000
     45 H2           2.6710    15.6260    -5.3840 ha         1 V5E       0.141000
     46 H           -1.6060    11.7570    -3.8630 h4         1 V5E       0.033100
     47 H1          -1.0570    15.7220    -5.4020 hn         1 V5E       0.513000
     48 H16          3.0350    11.0530    -4.4290 hn         1 V5E       0.508000
     49 H23          7.1450    13.0730    -5.0150 hn         1 V5E       0.348000
     50 C8           0.1480    19.6550    -7.9120 c3         1 V5E       0.214100
     51 H13          0.4430    17.7040    -9.6780 h1         1 V5E       0.042700
     52 H6           0.8860    20.3330    -8.3730 h1         1 V5E       0.040200
     53 H5          -0.3920    20.2480    -7.1680 h1         1 V5E       0.040200
@<TRIPOS>BOND
     1     1    26 2   
     2     1    27 1   
     3     1    29 1   
     4     2     3 2   
     5     2    26 1   
     6     2    30 1   
     7     3     4 1   
     8     3    27 1   
     9     4     5 1   
    10     4    31 1   
    11     4    32 1   
    12     5    25 1   
    13     5    33 1   
    14     5    34 1   
    15     6    20 ar  
    16     6    24 ar  
    17     6    25 1   
    18     7    12 ar  
    19     7    16 ar  
    20     7    35 1   
    21     8     9 1   
    22     8    23 1   
    23     8    36 1   
    24     8    51 1   
    25     9    21 1   
    26     9    37 1   
    27     9    38 1   
    28    10    11 1   
    29    10    21 1   
    30    10    39 1   
    31    10    40 1   
    32    11    23 1   
    33    11    41 1   
    34    11    42 1   
    35    12    13 ar  
    36    12    50 1   
    37    13    14 ar  
    38    13    43 1   
    39    14    15 ar  
    40    14    44 1   
    41    15    16 ar  
    42    15    45 1   
    43    16    22 1   
    44    17    19 ar  
    45    17    22 1   
    46    17    24 ar  
    47    18    19 ar  
    48    18    20 ar  
    49    18    46 1   
    50    20    28 1   
    51    22    47 1   
    52    23    50 1   
    53    25    48 1   
    54    27    49 1   
    55    50    52 1   
    56    50    53 1   
@<TRIPOS>SUBSTRUCTURE
     1 V5E         1 TEMP              0 ****  ****    0 ROOT
