@<TRIPOS>MOLECULE
V5F
   23    23     1     0     0
SMALL
No Charge or Current Charge


@<TRIPOS>ATOM
      1 C           -4.0680   -23.3900    14.0780 c          1 V5F       0.733000
      2 C6          -3.9590   -22.1470    13.1290 c3         1 V5F       0.020300
      3 C2          -2.6960   -19.8850    11.6820 ca         1 V5F      -0.184000
      4 C1          -2.8100   -19.9120    13.0940 ca         1 V5F       0.125100
      5 CA          -2.3840   -18.7810    13.8470 ca         1 V5F       0.241000
      6 C5          -1.8730   -17.6520    13.1830 ca         1 V5F      -0.167000
      7 C4          -1.7740   -17.6340    11.7820 ca         1 V5F      -0.142000
      8 C3          -2.1820   -18.7490    11.0350 ca         1 V5F      -0.123000
      9 CB          -5.3610   -21.6790    12.6550 c3         1 V5F      -0.101100
     10 N           -2.4620   -18.7560    15.2250 nv         1 V5F      -1.055000
     11 O           -4.4610   -24.4460    13.5960 o          1 V5F      -0.711000
     12 O1          -3.3080   -21.0180    13.7760 os         1 V5F      -0.315100
     13 H6          -3.3740   -22.4820    12.2650 h1         1 V5F       0.029700
     14 H4          -1.5500   -16.7840    13.7520 ha         1 V5F       0.093000
     15 H1          -1.3760   -16.7570    11.2760 ha         1 V5F       0.090000
     16 H3          -2.1000   -18.7330     9.9500 ha         1 V5F       0.093000
     17 HB1         -5.8760   -22.4900    12.1260 hc         1 V5F       0.026367
     18 HB2         -5.9780   -21.3850    13.5120 hc         1 V5F       0.026367
     19 HB3         -5.2930   -20.8270    11.9700 hc         1 V5F       0.026367
     20 H           -2.2980   -17.8910    15.7370 hn         1 V5F       0.444500
     21 OXT         -3.7160   -23.2900    15.2480 o          1 V5F      -0.711000
     22 H2          -2.9230   -19.5240    15.7090 hn         1 V5F       0.444500
     23 H5          -2.9980   -20.7320    11.0750 ha         1 V5F       0.118000
@<TRIPOS>BOND
     1     1     2 1   
     2     1    11 1   
     3     1    21 1   
     4     2     9 1   
     5     2    12 1   
     6     2    13 1   
     7     3     4 ar  
     8     3     8 ar  
     9     3    23 1   
    10     4     5 ar  
    11     4    12 1   
    12     5     6 ar  
    13     5    10 1   
    14     6     7 ar  
    15     6    14 1   
    16     7     8 ar  
    17     7    15 1   
    18     8    16 1   
    19     9    17 1   
    20     9    18 1   
    21     9    19 1   
    22    10    20 1   
    23    10    22 1   
@<TRIPOS>SUBSTRUCTURE
     1 V5F         1 TEMP              0 ****  ****    0 ROOT
