@<TRIPOS>MOLECULE
V5F
   23    23     1     0     0
SMALL
abcg2


@<TRIPOS>ATOM
      1 C           -4.0120   -23.2560    14.1270 c          1 V5F       0.733000
      2 C6          -3.9290   -22.0700    13.1330 c3         1 V5F       0.020300
      3 C2          -2.7340   -19.8740    11.6730 ca         1 V5F      -0.184000
      4 C1          -2.8150   -19.9360    13.0570 ca         1 V5F       0.125100
      5 CA          -2.3680   -18.8460    13.8360 ca         1 V5F       0.241000
      6 C5          -1.8570   -17.7280    13.1850 ca         1 V5F      -0.167000
      7 C4          -1.7780   -17.6730    11.7970 ca         1 V5F      -0.142000
      8 C3          -2.2130   -18.7460    11.0400 ca         1 V5F      -0.123000
      9 CB          -5.3220   -21.6780    12.6550 c3         1 V5F      -0.101100
     10 N           -2.3930   -18.9360    15.2190 nv         1 V5F      -1.055000
     11 O           -4.4370   -24.3100    13.6140 o          1 V5F      -0.711000
     12 O1          -3.2850   -20.9770    13.7740 os         1 V5F      -0.315100
     13 H6          -3.3270   -22.4010    12.2770 h1         1 V5F       0.029700
     14 H4          -1.5140   -16.8880    13.7790 ha         1 V5F       0.093000
     15 H1          -1.3780   -16.7890    11.3180 ha         1 V5F       0.090000
     16 H3          -2.1620   -18.7180     9.9600 ha         1 V5F       0.093000
     17 HB1         -5.7850   -22.5130    12.1320 hc         1 V5F       0.026367
     18 HB2         -5.9600   -21.4100    13.4990 hc         1 V5F       0.026367
     19 HB3         -5.3030   -20.8300    11.9700 hc         1 V5F       0.026367
     20 H           -2.3980   -18.0470    15.6940 hn         1 V5F       0.444500
     21 OXT         -3.6800   -23.0610    15.3060 o          1 V5F      -0.711000
     22 H2          -3.0940   -19.5560    15.5920 hn         1 V5F       0.444500
     23 H5          -3.0750   -20.7010    11.0650 ha         1 V5F       0.118000
@<TRIPOS>BOND
     1     1     2 1   
     2     1    11 1   
     3     1    21 1   
     4     2     9 1   
     5     2    12 1   
     6     2    13 1   
     7     3     4 ar  
     8     3     8 ar  
     9     3    23 1   
    10     4     5 ar  
    11     4    12 1   
    12     5     6 ar  
    13     5    10 1   
    14     6     7 ar  
    15     6    14 1   
    16     7     8 ar  
    17     7    15 1   
    18     8    16 1   
    19     9    17 1   
    20     9    18 1   
    21     9    19 1   
    22    10    20 1   
    23    10    22 1   
@<TRIPOS>SUBSTRUCTURE
     1 V5F         1 TEMP              0 ****  ****    0 ROOT
