@<TRIPOS>MOLECULE
V5G
   50    53     1     0     0
SMALL
abcg2


@<TRIPOS>ATOM
      1 C02          7.0270     4.6130    22.1460 ca         1 V5G       0.598900
      2 C03          5.7180     4.1440    22.3590 ca         1 V5G      -0.233000
      3 C04          4.6800     5.0380    22.2260 ca         1 V5G      -0.034000
      4 C05          4.9450     6.3630    21.8860 ca         1 V5G      -0.213000
      5 C06          6.2660     6.7350    21.6940 ca         1 V5G       0.398300
      6 C07          6.6360     8.1500    21.3510 c3         1 V5G      -0.125700
      7 C08          7.3230     8.8640    22.5240 c3         1 V5G      -0.029100
      8 C09          7.7590    10.2510    22.1460 ca         1 V5G      -0.044300
      9 C10          8.9500    10.4450    21.4430 ca         1 V5G      -0.144000
     10 C11          9.3250    11.7180    21.0550 ca         1 V5G      -0.073000
     11 C12          8.5350    12.8240    21.3520 ca         1 V5G      -0.201000
     12 C13          7.3480    12.6360    22.0540 ca         1 V5G       0.145100
     13 C15          6.8400    14.9510    22.0470 c3         1 V5G       0.210900
     14 C16          5.7900    15.9060    22.5380 ca         1 V5G      -0.071300
     15 C17          6.0060    17.2780    22.2790 ca         1 V5G      -0.131000
     16 C18          5.1000    18.2140    22.6970 ca         1 V5G      -0.070000
     17 C19          3.9390    17.8250    23.3930 ca         1 V5G      -0.131000
     18 C20          2.9660    18.7430    23.8610 ca         1 V5G      -0.028000
     19 C21          1.8730    18.2920    24.5250 ca         1 V5G      -0.210000
     20 C22          1.7320    16.8840    24.7390 ca         1 V5G       0.619900
     21 C25          3.7110    16.4540    23.6560 ca         1 V5G       0.326000
     22 C26          4.6630    15.5070    23.2120 ca         1 V5G      -0.074000
     23 C27          6.9680    11.3500    22.4440 ca         1 V5G      -0.142000
     24 N01          8.0930     3.7640    22.2170 nv         1 V5G      -1.055900
     25 N23          0.6220    16.4230    25.3660 nv         1 V5G      -1.072900
     26 N24          2.6190    16.0110    24.3210 nb         1 V5G      -0.759000
     27 N28          7.2800     5.8780    21.8240 nb         1 V5G      -0.753000
     28 O14          6.5040    13.6320    22.4010 os         1 V5G      -0.343100
     29 H1           5.5400     3.1080    22.6180 ha         1 V5G       0.120000
     30 H2           3.6610     4.7080    22.3860 ha         1 V5G       0.114000
     31 H3           4.1470     7.0850    21.7750 ha         1 V5G       0.124000
     32 H4           7.3110     8.1460    20.4910 hc         1 V5G       0.058700
     33 H5           5.7460     8.7100    21.0580 hc         1 V5G       0.058700
     34 H6           6.6380     8.9010    23.3740 hc         1 V5G       0.056200
     35 H7           8.1890     8.2770    22.8380 hc         1 V5G       0.056200
     36 H8           9.5810     9.5960    21.2050 ha         1 V5G       0.118000
     37 H9          10.2500    11.8660    20.5120 ha         1 V5G       0.110000
     38 H10          8.8610    13.8050    21.0350 ha         1 V5G       0.115000
     39 H11          6.9360    15.0500    20.9580 h1         1 V5G       0.042200
     40 H12          7.8090    15.2340    22.4770 h1         1 V5G       0.042200
     41 H13          6.8970    17.5870    21.7450 ha         1 V5G       0.111000
     42 H14          5.2680    19.2650    22.4980 ha         1 V5G       0.112000
     43 H15          3.1030    19.8040    23.6840 ha         1 V5G       0.116000
     44 H16          1.1150    18.9730    24.8900 ha         1 V5G       0.120000
     45 H17          4.4720    14.4640    23.4240 ha         1 V5G       0.145000
     46 H18          6.0400    11.2190    22.9900 ha         1 V5G       0.126000
     47 H19          8.9970     4.1940    22.3250 hn         1 V5G       0.469000
     48 H20          7.9770     2.9110    22.7380 hn         1 V5G       0.469000
     49 H21          0.6270    15.4680    25.6840 hn         1 V5G       0.480000
     50 H22          0.0650    17.0600    25.9100 hn         1 V5G       0.480000
@<TRIPOS>BOND
     1     1     2 ar  
     2     1    24 1   
     3     1    27 ar  
     4     2     3 ar  
     5     2    29 1   
     6     3     4 ar  
     7     3    30 1   
     8     4     5 ar  
     9     4    31 1   
    10     5     6 1   
    11     5    27 ar  
    12     6     7 1   
    13     6    32 1   
    14     6    33 1   
    15     7     8 1   
    16     7    34 1   
    17     7    35 1   
    18     8     9 ar  
    19     8    23 ar  
    20     9    10 ar  
    21     9    36 1   
    22    10    11 ar  
    23    10    37 1   
    24    11    12 ar  
    25    11    38 1   
    26    12    23 ar  
    27    12    28 1   
    28    13    14 1   
    29    13    28 1   
    30    13    39 1   
    31    13    40 1   
    32    14    15 ar  
    33    14    22 ar  
    34    15    16 ar  
    35    15    41 1   
    36    16    17 ar  
    37    16    42 1   
    38    17    18 ar  
    39    17    21 ar  
    40    18    19 ar  
    41    18    43 1   
    42    19    20 ar  
    43    19    44 1   
    44    20    25 1   
    45    20    26 ar  
    46    21    22 ar  
    47    21    26 ar  
    48    22    45 1   
    49    23    46 1   
    50    24    47 1   
    51    24    48 1   
    52    25    49 1   
    53    25    50 1   
@<TRIPOS>SUBSTRUCTURE
     1 V5G         1 TEMP              0 ****  ****    0 ROOT
