@<TRIPOS>MOLECULE
V5G
   50    53     1     0     0
SMALL
No Charge or Current Charge


@<TRIPOS>ATOM
      1 C02          6.7900     4.4700    22.1220 ca         1 V5G       0.598900
      2 C03          6.0490     4.1840    23.2720 ca         1 V5G      -0.233000
      3 C04          5.4480     5.2490    23.9570 ca         1 V5G      -0.034000
      4 C05          5.6330     6.5410    23.4400 ca         1 V5G      -0.213000
      5 C06          6.4030     6.7150    22.2720 ca         1 V5G       0.398300
      6 C07          6.6300     8.1020    21.6920 c3         1 V5G      -0.125700
      7 C08          7.7520     8.8720    22.4220 c3         1 V5G      -0.029100
      8 C09          7.9560    10.2670    21.8480 ca         1 V5G      -0.044300
      9 C10          8.8800    10.4810    20.8080 ca         1 V5G      -0.144000
     10 C11          9.0640    11.7670    20.2750 ca         1 V5G      -0.073000
     11 C12          8.3230    12.8510    20.7780 ca         1 V5G      -0.201000
     12 C13          7.3920    12.6450    21.8190 ca         1 V5G       0.145100
     13 C15          6.7410    15.0230    21.8840 c3         1 V5G       0.210900
     14 C16          5.7700    15.8860    22.6790 ca         1 V5G      -0.071300
     15 C17          6.2300    16.6860    23.7410 ca         1 V5G      -0.131000
     16 C18          5.3300    17.4780    24.4710 ca         1 V5G      -0.070000
     17 C19          3.9620    17.4750    24.1420 ca         1 V5G      -0.131000
     18 C20          3.0580    18.2680    24.8730 ca         1 V5G      -0.028000
     19 C21          1.7060    18.2290    24.5060 ca         1 V5G      -0.210000
     20 C22          1.3380    17.4090    23.4390 ca         1 V5G       0.619900
     21 C25          3.4780    16.6730    23.0740 ca         1 V5G       0.326000
     22 C26          4.3980    15.8860    22.3560 ca         1 V5G      -0.074000
     23 C27          7.2150    11.3560    22.3460 ca         1 V5G      -0.142000
     24 N01          7.4130     3.5420    21.3950 nv         1 V5G      -1.055900
     25 N23          0.0850    17.2780    23.0000 nv         1 V5G      -1.072900
     26 N24          2.1660    16.6500    22.7360 nb         1 V5G      -0.759000
     27 N28          6.9810     5.6810    21.6190 nb         1 V5G      -0.753000
     28 O14          6.6350    13.6680    22.3520 os         1 V5G      -0.343100
     29 H1           5.9410     3.1620    23.6230 ha         1 V5G       0.120000
     30 H2           4.8590     5.0800    24.8570 ha         1 V5G       0.114000
     31 H3           5.1890     7.4000    23.9350 ha         1 V5G       0.124000
     32 H4           6.8760     8.0360    20.6250 hc         1 V5G       0.058700
     33 H5           5.7000     8.6810    21.7540 hc         1 V5G       0.058700
     34 H6           7.5100     8.9370    23.4900 hc         1 V5G       0.056200
     35 H7           8.6830     8.2960    22.3550 hc         1 V5G       0.056200
     36 H8           9.4550     9.6480    20.4100 ha         1 V5G       0.118000
     37 H9           9.7800    11.9240    19.4720 ha         1 V5G       0.110000
     38 H10          8.4850    13.8350    20.3480 ha         1 V5G       0.115000
     39 H11          6.4910    15.0850    20.8170 h1         1 V5G       0.042200
     40 H12          7.7640    15.4000    22.0180 h1         1 V5G       0.042200
     41 H13          7.2860    16.6930    24.0030 ha         1 V5G       0.111000
     42 H14          5.6980    18.0930    25.2900 ha         1 V5G       0.112000
     43 H15          3.3930    18.8940    25.6980 ha         1 V5G       0.116000
     44 H16          0.9660    18.8210    25.0350 ha         1 V5G       0.120000
     45 H17          4.0370    15.2670    21.5400 ha         1 V5G       0.145000
     46 H18          6.4950    11.2030    23.1460 ha         1 V5G       0.126000
     47 H19          8.0970     3.9050    20.7430 hn         1 V5G       0.469000
     48 H20          7.6390     2.6630    21.8470 hn         1 V5G       0.469000
     49 H21         -0.0600    16.4800    22.3940 hn         1 V5G       0.480000
     50 H22         -0.6620    17.4910    23.6520 hn         1 V5G       0.480000
@<TRIPOS>BOND
     1     1     2 ar  
     2     1    24 1   
     3     1    27 ar  
     4     2     3 ar  
     5     2    29 1   
     6     3     4 ar  
     7     3    30 1   
     8     4     5 ar  
     9     4    31 1   
    10     5     6 1   
    11     5    27 ar  
    12     6     7 1   
    13     6    32 1   
    14     6    33 1   
    15     7     8 1   
    16     7    34 1   
    17     7    35 1   
    18     8     9 ar  
    19     8    23 ar  
    20     9    10 ar  
    21     9    36 1   
    22    10    11 ar  
    23    10    37 1   
    24    11    12 ar  
    25    11    38 1   
    26    12    23 ar  
    27    12    28 1   
    28    13    14 1   
    29    13    28 1   
    30    13    39 1   
    31    13    40 1   
    32    14    15 ar  
    33    14    22 ar  
    34    15    16 ar  
    35    15    41 1   
    36    16    17 ar  
    37    16    42 1   
    38    17    18 ar  
    39    17    21 ar  
    40    18    19 ar  
    41    18    43 1   
    42    19    20 ar  
    43    19    44 1   
    44    20    25 1   
    45    20    26 ar  
    46    21    22 ar  
    47    21    26 ar  
    48    22    45 1   
    49    23    46 1   
    50    24    47 1   
    51    24    48 1   
    52    25    49 1   
    53    25    50 1   
@<TRIPOS>SUBSTRUCTURE
     1 V5G         1 TEMP              0 ****  ****    0 ROOT
