@<TRIPOS>MOLECULE
V5I
   29    29     1     0     0
SMALL
No Charge or Current Charge


@<TRIPOS>ATOM
      1 C7           9.2660     1.9520    -5.7710 c3         1 V5I      -0.062100
      2 C8           8.6320     3.3620    -5.5310 c3         1 V5I       0.174200
      3 C9           7.6360     3.3630    -4.3450 c3         1 V5I      -0.080600
      4 C1           8.0910     0.3630    -7.4640 ca         1 V5I      -0.071300
      5 C5           7.5720     0.1950    -5.0850 ca         1 V5I      -0.108000
      6 C6           8.2810     0.8250    -6.1320 ca         1 V5I      -0.067300
      7 C4           6.6620    -0.8400    -5.3470 ca         1 V5I      -0.113000
      8 C3           6.4560    -1.2720    -6.6630 ca         1 V5I      -0.108000
      9 C2           7.1720    -0.6780    -7.7130 ca         1 V5I      -0.112000
     10 N            9.7200     4.2950    -5.1940 n8         1 V5I      -0.996200
     11 C10          7.9330     3.9020    -6.8020 c3         1 V5I      -0.080600
     12 H1           9.8060     1.6570    -4.8620 hc         1 V5I       0.042200
     13 H2          10.0450     2.0420    -6.5360 hc         1 V5I       0.042200
     14 H3           8.0950     2.9420    -3.4420 hc         1 V5I       0.039867
     15 H4           7.3020     4.3820    -4.1110 hc         1 V5I       0.039867
     16 H5           6.7420     2.7750    -4.5820 hc         1 V5I       0.039867
     17 H6           7.7280     0.5090    -4.0560 ha         1 V5I       0.109000
     18 H7           6.1190    -1.3080    -4.5290 ha         1 V5I       0.113000
     19 H8           5.7510    -2.0750    -6.8690 ha         1 V5I       0.112000
     20 H9           7.0140    -1.0360    -8.7280 ha         1 V5I       0.109000
     21 H10          9.5880     4.6210    -4.2310 hn         1 V5I       0.390500
     22 H11         10.6010     3.7730    -5.1530 hn         1 V5I       0.390500
     23 H13          7.4940     4.8900    -6.6180 hc         1 V5I       0.039867
     24 H14          8.6440     4.0020    -7.6300 hc         1 V5I       0.039867
     25 H15          7.1250     3.2330    -7.1200 hc         1 V5I       0.039867
     26 H16          8.6480     1.9950    -8.8020 hc         1 V5I       0.041700
     27 H17          9.9500     0.8270    -8.5030 hc         1 V5I       0.041700
     28 H18          8.6220     0.4190    -9.5840 hc         1 V5I       0.041700
     29 C            8.8690     0.9350    -8.6480 c3         1 V5I      -0.047800
@<TRIPOS>BOND
     1     1     2 1   
     2     1     6 1   
     3     1    12 1   
     4     1    13 1   
     5     2     3 1   
     6     2    10 1   
     7     2    11 1   
     8     3    14 1   
     9     3    15 1   
    10     3    16 1   
    11     4     6 ar  
    12     4     9 ar  
    13     4    29 1   
    14     5     6 ar  
    15     5     7 ar  
    16     5    17 1   
    17     7     8 ar  
    18     7    18 1   
    19     8     9 ar  
    20     8    19 1   
    21     9    20 1   
    22    10    21 1   
    23    10    22 1   
    24    11    23 1   
    25    11    24 1   
    26    11    25 1   
    27    26    29 1   
    28    27    29 1   
    29    28    29 1   
@<TRIPOS>SUBSTRUCTURE
     1 V5I         1 TEMP              0 ****  ****    0 ROOT
