@<TRIPOS>MOLECULE
V5I
   29    29     1     0     0
SMALL
abcg2


@<TRIPOS>ATOM
      1 C7           9.2050     1.9310    -5.6930 c3         1 V5I      -0.062100
      2 C8           8.5970     3.3560    -5.5020 c3         1 V5I       0.174200
      3 C9           7.5780     3.3760    -4.3630 c3         1 V5I      -0.080600
      4 C1           8.1120     0.3830    -7.4110 ca         1 V5I      -0.071300
      5 C5           7.5180     0.1830    -5.0810 ca         1 V5I      -0.108000
      6 C6           8.2600     0.8200    -6.0800 ca         1 V5I      -0.067300
      7 C4           6.6140    -0.8320    -5.3700 ca         1 V5I      -0.113000
      8 C3           6.4470    -1.2410    -6.6880 ca         1 V5I      -0.108000
      9 C2           7.2000    -0.6380    -7.6880 ca         1 V5I      -0.112000
     10 N            9.6710     4.3060    -5.1460 n8         1 V5I      -0.996200
     11 C10          7.9440     3.8580    -6.7890 c3         1 V5I      -0.080600
     12 H1           9.6830     1.6680    -4.7450 hc         1 V5I       0.042200
     13 H2          10.0020     2.0220    -6.4330 hc         1 V5I       0.042200
     14 H3           8.0300     3.0290    -3.4310 hc         1 V5I       0.039867
     15 H4           7.2170     4.3940    -4.2120 hc         1 V5I       0.039867
     16 H5           6.7230     2.7360    -4.5840 hc         1 V5I       0.039867
     17 H6           7.6590     0.4890    -4.0520 ha         1 V5I       0.109000
     18 H7           6.0530    -1.3020    -4.5720 ha         1 V5I       0.113000
     19 H8           5.7490    -2.0310    -6.9350 ha         1 V5I       0.112000
     20 H9           7.0890    -0.9740    -8.7130 ha         1 V5I       0.109000
     21 H10         10.1290     3.9920    -4.2950 hn         1 V5I       0.390500
     22 H11         10.3850     4.2900    -5.8690 hn         1 V5I       0.390500
     23 H13          7.4960     4.8390    -6.6210 hc         1 V5I       0.039867
     24 H14          8.6840     3.9540    -7.5870 hc         1 V5I       0.039867
     25 H15          7.1630     3.1750    -7.1250 hc         1 V5I       0.039867
     26 H16          8.6970     2.0060    -8.7230 hc         1 V5I       0.041700
     27 H17          9.9980     0.8960    -8.3340 hc         1 V5I       0.041700
     28 H18          8.7330     0.4070    -9.4640 hc         1 V5I       0.041700
     29 C            8.9270     0.9560    -8.5430 c3         1 V5I      -0.047800
@<TRIPOS>BOND
     1     1     2 1   
     2     1     6 1   
     3     1    12 1   
     4     1    13 1   
     5     2     3 1   
     6     2    10 1   
     7     2    11 1   
     8     3    14 1   
     9     3    15 1   
    10     3    16 1   
    11     4     6 ar  
    12     4     9 ar  
    13     4    29 1   
    14     5     6 ar  
    15     5     7 ar  
    16     5    17 1   
    17     7     8 ar  
    18     7    18 1   
    19     8     9 ar  
    20     8    19 1   
    21     9    20 1   
    22    10    21 1   
    23    10    22 1   
    24    11    23 1   
    25    11    24 1   
    26    11    25 1   
    27    26    29 1   
    28    27    29 1   
    29    28    29 1   
@<TRIPOS>SUBSTRUCTURE
     1 V5I         1 TEMP              0 ****  ****    0 ROOT
