@<TRIPOS>MOLECULE
V5J
   56    59     1     0     0
SMALL
No Charge or Current Charge


@<TRIPOS>ATOM
      1 C4          -7.8730   -49.1090   -10.7460 ca         1 V5J       0.145000
      2 C5          -6.7420   -49.1070   -11.5830 ca         1 V5J      -0.070000
      3 C6          -6.9340   -48.9500   -12.9730 ca         1 V5J      -0.072000
      4 C7          -8.2290   -48.8030   -13.5310 cp         1 V5J      -0.045000
      5 C8          -8.3650   -48.6320   -15.0090 cp         1 V5J      -0.059000
      6 C10         -9.1340   -47.4130   -16.9720 ca         1 V5J      -0.173900
      7 N12         -9.9340   -46.1500   -18.9040 nc         1 V5J      -0.415300
      8 C21         -4.1800   -49.4120   -11.4990 c          1 V5J       0.620700
      9 C24         -3.2910   -49.4200    -9.0890 ca         1 V5J      -0.081000
     10 C26         -0.9090   -49.6820    -8.6460 ca         1 V5J      -0.076000
     11 C28         -1.7250   -49.6750   -10.9310 ca         1 V5J      -0.046000
     12 C11         -9.8410   -46.2750   -17.5800 cd         1 V5J       0.366800
     13 C14         -8.6430   -48.2530   -19.2970 c          1 V5J       0.445500
     14 C16         -8.5360   -48.3970   -17.7860 ca         1 V5J       0.293500
     15 C18         -7.7870   -49.5610   -15.9080 ca         1 V5J       0.349900
     16 C2          -9.3580   -48.8300   -12.6630 ca         1 V5J      -0.042300
     17 C23         -3.0550   -49.5020   -10.4810 ca         1 V5J      -0.152600
     18 C25         -2.2230   -49.5100    -8.1860 ca         1 V5J      -0.118000
     19 C27         -0.6350   -49.7660   -10.0320 ca         1 V5J      -0.086300
     20 C29          0.8030   -49.9530   -10.5890 c3         1 V5J       0.068400
     21 C3          -9.1630   -48.9760   -11.2770 ca         1 V5J      -0.139000
     22 C30          1.1610   -48.7590   -11.5170 c3         1 V5J      -0.084600
     23 C31          1.8910   -50.0480    -9.4810 c3         1 V5J      -0.084600
     24 C32          0.8390   -51.2110   -11.3690 c1         1 V5J       0.297900
     25 C9          -9.0450   -47.5290   -15.5720 ca         1 V5J      -0.053000
     26 F34         -7.7250   -49.2490    -9.4090 f          1 V5J      -0.178000
     27 N13         -9.3560   -47.1050   -19.7270 n          1 V5J      -0.152800
     28 N17         -7.8670   -49.4590   -17.2550 nb         1 V5J      -0.604000
     29 N20         -5.4580   -49.2500   -10.9760 ns         1 V5J      -0.152000
     30 N33          0.8790   -52.1870   -12.0050 n1         1 V5J      -0.450000
     31 O15         -8.1580   -49.0570   -20.0930 o          1 V5J      -0.496000
     32 O22         -3.9540   -49.4870   -12.7020 o          1 V5J      -0.567100
     33 H1          -6.0870   -48.9180   -13.6490 ha         1 V5J       0.142000
     34 H2          -4.2920   -49.2870    -8.6860 ha         1 V5J       0.116000
     35 H3          -0.1200   -49.7440    -7.9020 ha         1 V5J       0.120000
     36 H4          -1.5380   -49.7440   -12.0010 ha         1 V5J       0.142000
     37 H5         -10.9080   -49.2470   -14.1410 hc         1 V5J       0.048700
     38 H6         -11.5020   -49.1870   -12.4840 hc         1 V5J       0.048700
     39 H7         -11.0880   -47.6850   -13.3180 hc         1 V5J       0.048700
     40 H8         -10.3220   -45.4830   -17.0200 h4         1 V5J       0.046800
     41 H9          -7.2450   -50.4260   -15.5270 h4         1 V5J       0.031100
     42 H10        -10.0940   -45.9410   -21.3520 h1         1 V5J       0.056367
     43 H11         -8.5390   -46.7650   -21.6510 h1         1 V5J       0.056367
     44 H12        -10.0610   -47.7040   -21.6320 h1         1 V5J       0.056367
     45 H13         -2.4150   -49.4460    -7.1170 ha         1 V5J       0.120000
     46 H14        -10.0160   -48.9930   -10.6030 ha         1 V5J       0.134000
     47 H15          1.0950   -47.8120   -10.9670 hc         1 V5J       0.048867
     48 H16          2.1840   -48.8520   -11.9040 hc         1 V5J       0.048867
     49 H17          0.4870   -48.6930   -12.3790 hc         1 V5J       0.048867
     50 H18          1.9240   -49.1300    -8.8820 hc         1 V5J       0.048867
     51 H19          1.7040   -50.8950    -8.8080 hc         1 V5J       0.048867
     52 H20          2.8880   -50.1890    -9.9180 hc         1 V5J       0.048867
     53 H21         -9.4860   -46.7720   -14.9270 ha         1 V5J       0.131000
     54 H22         -5.4880   -49.2300    -9.9660 hn         1 V5J       0.166000
     55 C1         -10.7890   -48.7310   -13.1820 c3         1 V5J      -0.051800
     56 C19         -9.5240   -46.8630   -21.1770 c3         1 V5J       0.101300
@<TRIPOS>BOND
     1     1     2 ar  
     2     1    21 ar  
     3     1    26 1   
     4     2     3 ar  
     5     2    29 1   
     6     3     4 ar  
     7     3    33 1   
     8     4     5 1   
     9     4    16 ar  
    10     5    15 ar  
    11     5    25 ar  
    12     6    12 1   
    13     6    14 ar  
    14     6    25 ar  
    15     7    12 2   
    16     7    27 1   
    17     8    17 1   
    18     8    29 1   
    19     8    32 2   
    20     9    17 ar  
    21     9    18 ar  
    22     9    34 1   
    23    10    18 ar  
    24    10    19 ar  
    25    10    35 1   
    26    11    17 ar  
    27    11    19 ar  
    28    11    36 1   
    29    12    40 1   
    30    13    14 1   
    31    13    27 1   
    32    13    31 2   
    33    14    28 ar  
    34    15    28 ar  
    35    15    41 1   
    36    16    21 ar  
    37    16    55 1   
    38    18    45 1   
    39    19    20 1   
    40    20    22 1   
    41    20    23 1   
    42    20    24 1   
    43    21    46 1   
    44    22    47 1   
    45    22    48 1   
    46    22    49 1   
    47    23    50 1   
    48    23    51 1   
    49    23    52 1   
    50    24    30 3   
    51    25    53 1   
    52    27    56 1   
    53    29    54 1   
    54    37    55 1   
    55    38    55 1   
    56    39    55 1   
    57    42    56 1   
    58    43    56 1   
    59    44    56 1   
@<TRIPOS>SUBSTRUCTURE
     1 V5J         1 TEMP              0 ****  ****    0 ROOT
