@<TRIPOS>MOLECULE
V5J
   56    59     1     0     0
SMALL
bcc


@<TRIPOS>ATOM
      1 C4          -7.5670   -48.2340   -10.7210 ca         1 V5J       0.109900
      2 C5          -6.6360   -48.8340   -11.5590 ca         1 V5J       0.022600
      3 C6          -6.9570   -48.9100   -12.9080 ca         1 V5J      -0.090000
      4 C7          -8.1510   -48.3950   -13.4050 cp         1 V5J      -0.045000
      5 C8          -8.4040   -48.5100   -14.8560 cp         1 V5J      -0.124300
      6 C10         -8.9450   -47.6230   -17.0110 ca         1 V5J      -0.239200
      7 N12         -9.4820   -46.7640   -19.1710 nc         1 V5J      -0.415300
      8 C21         -4.2180   -49.1910   -11.5700 c          1 V5J       0.687700
      9 C24         -3.2940   -51.0350   -10.0970 ca         1 V5J      -0.099000
     10 C26         -0.9390   -51.0890    -9.5980 ca         1 V5J      -0.094000
     11 C28         -1.8270   -49.3440   -10.9730 ca         1 V5J      -0.064000
     12 C11         -9.2980   -46.5720   -17.9160 cd         1 V5J       0.366800
     13 C14         -9.0010   -49.1260   -18.9690 c          1 V5J       0.588000
     14 C16         -8.7950   -48.9060   -17.5300 ca         1 V5J       0.358800
     15 C18         -8.2830   -49.7610   -15.4960 ca         1 V5J       0.415200
     16 C2          -9.0860   -47.8140   -12.5360 ca         1 V5J      -0.042300
     17 C23         -3.1050   -49.8750   -10.8460 ca         1 V5J      -0.152600
     18 C25         -2.2100   -51.6350    -9.4800 ca         1 V5J      -0.136000
     19 C27         -0.7350   -49.9340   -10.3460 ca         1 V5J      -0.086300
     20 C29          0.6390   -49.2770   -10.4570 c3         1 V5J       0.068400
     21 C3          -8.7710   -47.7510   -11.1840 ca         1 V5J      -0.157000
     22 C30          0.6320   -47.9360    -9.7010 c3         1 V5J      -0.084600
     23 C31          1.7840   -50.1540    -9.9370 c3         1 V5J      -0.084600
     24 C32          0.9040   -49.0060   -11.8760 c1         1 V5J       0.208700
     25 C9          -8.7380   -47.4280   -15.6420 ca         1 V5J      -0.071000
     26 F34         -7.2890   -48.1440    -9.4130 f          1 V5J      -0.142900
     27 N13         -9.3400   -47.9950   -19.6750 n          1 V5J      -0.219800
     28 N17         -8.4670   -49.9590   -16.7800 nb         1 V5J      -0.604000
     29 N20         -5.4530   -49.3590   -11.0250 ns         1 V5J      -0.478100
     30 N33          1.1320   -48.7830   -12.9820 n1         1 V5J      -0.360800
     31 O15         -8.8870   -50.2050   -19.5220 o          1 V5J      -0.571500
     32 O22         -4.0160   -48.5290   -12.5700 o          1 V5J      -0.567100
     33 H1          -6.2600   -49.3790   -13.5880 ha         1 V5J       0.160000
     34 H2          -4.2690   -51.4980   -10.0110 ha         1 V5J       0.134000
     35 H3          -0.1140   -51.5820    -9.1040 ha         1 V5J       0.138000
     36 H4          -1.6910   -48.4500   -11.5700 ha         1 V5J       0.160000
     37 H5         -10.8590   -47.9250   -13.7660 hc         1 V5J       0.048700
     38 H6         -11.1140   -47.2330   -12.1660 hc         1 V5J       0.048700
     39 H7         -10.3310   -46.2870   -13.4190 hc         1 V5J       0.048700
     40 H8          -9.4250   -45.5580   -17.5590 h4         1 V5J       0.046800
     41 H9          -8.0300   -50.6350   -14.9040 h4         1 V5J       0.031100
     42 H10         -9.8490   -47.1450   -21.4830 h1         1 V5J       0.056367
     43 H11         -8.6590   -48.4510   -21.6120 h1         1 V5J       0.056367
     44 H12        -10.3600   -48.8330   -21.3120 h1         1 V5J       0.056367
     45 H13         -2.3510   -52.5430    -8.9080 ha         1 V5J       0.138000
     46 H14         -9.4700   -47.3180   -10.4790 ha         1 V5J       0.152000
     47 H15          0.4240   -48.1270    -8.6490 hc         1 V5J       0.048867
     48 H16          1.6020   -47.4450    -9.7780 hc         1 V5J       0.048867
     49 H17         -0.1300   -47.2610   -10.0850 hc         1 V5J       0.048867
     50 H18          1.6750   -50.3130    -8.8650 hc         1 V5J       0.048867
     51 H19          1.8130   -51.1230   -10.4340 hc         1 V5J       0.048867
     52 H20          2.7380   -49.6550   -10.1010 hc         1 V5J       0.048867
     53 H21         -8.8260   -46.4330   -15.2230 ha         1 V5J       0.149000
     54 H22         -5.5130   -49.7720   -10.1070 hn         1 V5J       0.332500
     55 C1         -10.4150   -47.2910   -12.9990 c3         1 V5J      -0.051800
     56 C19         -9.5640   -48.1200   -21.1050 c3         1 V5J       0.101300
@<TRIPOS>BOND
     1     1     2 ar  
     2     1    21 ar  
     3     1    26 1   
     4     2     3 ar  
     5     2    29 1   
     6     3     4 ar  
     7     3    33 1   
     8     4     5 1   
     9     4    16 ar  
    10     5    15 ar  
    11     5    25 ar  
    12     6    12 1   
    13     6    14 ar  
    14     6    25 ar  
    15     7    12 2   
    16     7    27 1   
    17     8    17 1   
    18     8    29 1   
    19     8    32 2   
    20     9    17 ar  
    21     9    18 ar  
    22     9    34 1   
    23    10    18 ar  
    24    10    19 ar  
    25    10    35 1   
    26    11    17 ar  
    27    11    19 ar  
    28    11    36 1   
    29    12    40 1   
    30    13    14 1   
    31    13    27 1   
    32    13    31 2   
    33    14    28 ar  
    34    15    28 ar  
    35    15    41 1   
    36    16    21 ar  
    37    16    55 1   
    38    18    45 1   
    39    19    20 1   
    40    20    22 1   
    41    20    23 1   
    42    20    24 1   
    43    21    46 1   
    44    22    47 1   
    45    22    48 1   
    46    22    49 1   
    47    23    50 1   
    48    23    51 1   
    49    23    52 1   
    50    24    30 3   
    51    25    53 1   
    52    27    56 1   
    53    29    54 1   
    54    37    55 1   
    55    38    55 1   
    56    39    55 1   
    57    42    56 1   
    58    43    56 1   
    59    44    56 1   
@<TRIPOS>SUBSTRUCTURE
     1 V5J         1 TEMP              0 ****  ****    0 ROOT
