@<TRIPOS>MOLECULE
V5K
   21    21     1     0     0
SMALL
abcg2


@<TRIPOS>ATOM
      1 N1          -6.1610     4.2790   -39.8820 na         1 V5K      -0.005200
      2 C2          -5.5580     7.9260   -35.8390 c3         1 V5K       0.176300
      3 C4          -6.8850     6.7630   -37.4720 c          1 V5K       0.530600
      4 C5          -6.8740     5.7460   -38.5400 cc         1 V5K       0.198500
      5 C6          -7.9900     5.3200   -39.2940 cc         1 V5K      -0.167000
      6 C1          -4.1380     8.4480   -35.9110 c3         1 V5K      -0.103100
      7 C3          -5.8860     7.2420   -34.5250 c3         1 V5K      -0.103100
      8 O1          -5.6840     6.9530   -36.9270 os         1 V5K      -0.435100
      9 O2          -7.8960     7.3540   -37.1420 o          1 V5K      -0.495000
     10 C7          -7.4860     4.3700   -40.1510 cd         1 V5K      -0.182000
     11 N2          -5.7620     5.1010   -38.9110 nd         1 V5K      -0.461800
     12 H1          -5.4880     3.6750   -40.3310 hn         1 V5K       0.376000
     13 H2          -6.2700     8.7270   -36.0360 h1         1 V5K       0.064700
     14 H3          -9.0070     5.6610   -39.2130 ha         1 V5K       0.162000
     15 H4          -3.9850     9.1980   -35.1330 hc         1 V5K       0.048033
     16 H5          -3.4220     7.6380   -35.7550 hc         1 V5K       0.048033
     17 H6          -3.9430     8.9090   -36.8800 hc         1 V5K       0.048033
     18 H7          -5.7970     7.9590   -33.7070 hc         1 V5K       0.048033
     19 H8          -6.9050     6.8520   -34.5290 hc         1 V5K       0.048033
     20 H9          -5.1920     6.4190   -34.3420 hc         1 V5K       0.048033
     21 H10         -7.9500     3.7650   -40.9120 h4         1 V5K       0.159000
@<TRIPOS>BOND
     1     1    10 1   
     2     1    11 1   
     3     1    12 1   
     4     2     6 1   
     5     2     7 1   
     6     2     8 1   
     7     2    13 1   
     8     3     4 1   
     9     3     8 1   
    10     3     9 2   
    11     4     5 1   
    12     4    11 2   
    13     5    10 2   
    14     5    14 1   
    15     6    15 1   
    16     6    16 1   
    17     6    17 1   
    18     7    18 1   
    19     7    19 1   
    20     7    20 1   
    21    10    21 1   
@<TRIPOS>SUBSTRUCTURE
     1 V5K         1 TEMP              0 ****  ****    0 ROOT
