@<TRIPOS>MOLECULE
V5K
   21    21     1     0     0
SMALL
No Charge or Current Charge


@<TRIPOS>ATOM
      1 N1          -6.1740     4.2300   -40.0140 na         1 V5K      -0.005200
      2 C2          -5.5430     7.9960   -35.8680 c3         1 V5K       0.176300
      3 C4          -6.8430     6.7300   -37.4980 c          1 V5K       0.530600
      4 C5          -6.7810     5.6890   -38.5790 cc         1 V5K       0.198500
      5 C6          -7.9450     5.2370   -39.2310 cc         1 V5K      -0.167000
      6 C1          -4.0890     8.5030   -35.8150 c3         1 V5K      -0.103100
      7 C3          -5.9550     7.2650   -34.5700 c3         1 V5K      -0.103100
      8 O1          -5.6150     7.0660   -36.9660 os         1 V5K      -0.435100
      9 O2          -7.8910     7.2480   -37.1210 o          1 V5K      -0.495000
     10 C7          -7.5660     4.3050   -40.1480 cd         1 V5K      -0.182000
     11 N2          -5.6840     5.0940   -39.0340 nd         1 V5K      -0.461800
     12 H1          -5.5480     3.6280   -40.5500 hn         1 V5K       0.376000
     13 H2          -6.2030     8.8590   -36.0340 h1         1 V5K       0.064700
     14 H3          -8.9530     5.5820   -39.0240 ha         1 V5K       0.162000
     15 H4          -3.9630     9.2210   -34.9960 hc         1 V5K       0.048033
     16 H5          -3.3900     7.6730   -35.6580 hc         1 V5K       0.048033
     17 H6          -3.8250     9.0080   -36.7520 hc         1 V5K       0.048033
     18 H7          -5.8290     7.9260   -33.7040 hc         1 V5K       0.048033
     19 H8          -7.0060     6.9570   -34.6030 hc         1 V5K       0.048033
     20 H9          -5.3370     6.3730   -34.4120 hc         1 V5K       0.048033
     21 H10         -8.1390     3.7130   -40.8560 h4         1 V5K       0.159000
@<TRIPOS>BOND
     1     1    10 1   
     2     1    11 1   
     3     1    12 1   
     4     2     6 1   
     5     2     7 1   
     6     2     8 1   
     7     2    13 1   
     8     3     4 1   
     9     3     8 1   
    10     3     9 2   
    11     4     5 1   
    12     4    11 2   
    13     5    10 2   
    14     5    14 1   
    15     6    15 1   
    16     6    16 1   
    17     6    17 1   
    18     7    18 1   
    19     7    19 1   
    20     7    20 1   
    21    10    21 1   
@<TRIPOS>SUBSTRUCTURE
     1 V5K         1 TEMP              0 ****  ****    0 ROOT
