@<TRIPOS>MOLECULE
V5L
   21    22     1     0     0
SMALL
abcg2


@<TRIPOS>ATOM
      1 C13        -15.0760   -13.2550    -6.0050 cc         1 V5L       0.393400
      2 C01        -20.8430   -17.3140    -7.5160 c3         1 V5L       0.146900
      3 C03        -18.7660   -16.2440    -8.0270 ca         1 V5L       0.152100
      4 C04        -17.8480   -15.8480    -9.0080 ca         1 V5L      -0.160500
      5 C05        -16.6970   -15.1710    -8.6560 ca         1 V5L      -0.060000
      6 C06        -16.4480   -14.8950    -7.3130 ca         1 V5L      -0.044200
      7 C07        -17.3430   -15.2910    -6.3320 ca         1 V5L      -0.060000
      8 C08        -18.5090   -15.9610    -6.6840 ca         1 V5L      -0.160500
      9 N09        -15.2650   -14.1930    -6.9480 na         1 V5L       0.012500
     10 N10        -14.0850   -14.4000    -7.5660 nc         1 V5L      -0.197800
     11 N11        -13.2320   -13.6100    -7.0100 nd         1 V5L      -0.044000
     12 N12        -13.8150   -12.8820    -6.0270 nd         1 V5L      -0.385000
     13 H1         -15.8520   -12.8780    -5.3610 h5         1 V5L       0.074100
     14 H2         -21.6290   -17.7990    -8.0900 h1         1 V5L       0.047033
     15 H3         -20.4140   -18.0240    -6.8060 h1         1 V5L       0.047033
     16 H4         -21.2540   -16.4570    -6.9770 h1         1 V5L       0.047033
     17 H5         -18.0610   -16.0700   -10.0460 ha         1 V5L       0.133000
     18 H6         -15.9950   -14.8520    -9.4140 ha         1 V5L       0.134000
     19 H7         -17.1350   -15.0940    -5.2880 ha         1 V5L       0.134000
     20 H8         -19.1960   -16.2630    -5.9080 ha         1 V5L       0.133000
     21 O02        -19.8670   -16.8930    -8.4720 os         1 V5L      -0.342100
@<TRIPOS>BOND
     1     1     9 1   
     2     1    12 2   
     3     1    13 1   
     4     2    14 1   
     5     2    15 1   
     6     2    16 1   
     7     2    21 1   
     8     3     4 ar  
     9     3     8 ar  
    10     3    21 1   
    11     4     5 ar  
    12     4    17 1   
    13     5     6 ar  
    14     5    18 1   
    15     6     7 ar  
    16     6     9 1   
    17     7     8 ar  
    18     7    19 1   
    19     8    20 1   
    20     9    10 1   
    21    10    11 2   
    22    11    12 1   
@<TRIPOS>SUBSTRUCTURE
     1 V5L         1 TEMP              0 ****  ****    0 ROOT
