@<TRIPOS>MOLECULE
V5L
   21    22     1     0     0
SMALL
No Charge or Current Charge


@<TRIPOS>ATOM
      1 C13        -15.1060   -13.2350    -5.9940 cc         1 V5L       0.393400
      2 C01        -20.8920   -17.3530    -7.5140 c3         1 V5L       0.146900
      3 C03        -18.7580   -16.2300    -8.0440 ca         1 V5L       0.152100
      4 C04        -17.8480   -15.8260    -9.0330 ca         1 V5L      -0.160500
      5 C05        -16.6700   -15.1430    -8.6840 ca         1 V5L      -0.060000
      6 C06        -16.3880   -14.8530    -7.3320 ca         1 V5L      -0.044200
      7 C07        -17.3030   -15.2600    -6.3380 ca         1 V5L      -0.060000
      8 C08        -18.4820   -15.9440    -6.6890 ca         1 V5L      -0.160500
      9 N09        -15.2170   -14.1700    -6.9850 na         1 V5L       0.012500
     10 N10        -14.0310   -14.4480    -7.5660 nc         1 V5L      -0.197800
     11 N11        -13.1970   -13.6550    -6.9410 nd         1 V5L      -0.044000
     12 N12        -13.8270   -12.8990    -5.9680 nd         1 V5L      -0.385000
     13 H1         -15.9210   -12.8650    -5.3860 h5         1 V5L       0.074100
     14 H2         -21.7090   -17.8560    -8.0460 h1         1 V5L       0.047033
     15 H3         -20.4600   -18.0680    -6.8020 h1         1 V5L       0.047033
     16 H4         -21.3180   -16.5110    -6.9550 h1         1 V5L       0.047033
     17 H5         -18.0580   -16.0440   -10.0770 ha         1 V5L       0.133000
     18 H6         -15.9800   -14.8350    -9.4670 ha         1 V5L       0.134000
     19 H7         -17.1040   -15.0580    -5.2870 ha         1 V5L       0.134000
     20 H8         -19.1630   -16.2450    -5.8990 ha         1 V5L       0.133000
     21 O02        -19.8960   -16.8970    -8.4480 os         1 V5L      -0.342100
@<TRIPOS>BOND
     1     1     9 1   
     2     1    12 2   
     3     1    13 1   
     4     2    14 1   
     5     2    15 1   
     6     2    16 1   
     7     2    21 1   
     8     3     4 ar  
     9     3     8 ar  
    10     3    21 1   
    11     4     5 ar  
    12     4    17 1   
    13     5     6 ar  
    14     5    18 1   
    15     6     7 ar  
    16     6     9 1   
    17     7     8 ar  
    18     7    19 1   
    19     8    20 1   
    20     9    10 1   
    21    10    11 2   
    22    11    12 1   
@<TRIPOS>SUBSTRUCTURE
     1 V5L         1 TEMP              0 ****  ****    0 ROOT
