@<TRIPOS>MOLECULE
V5M
   42    43     1     0     0
SMALL
No Charge or Current Charge


@<TRIPOS>ATOM
      1 C02         20.7240     8.8260    33.4030 ca         1 V5M       0.113100
      2 C03         21.5050     9.3480    32.3620 ca         1 V5M      -0.126000
      3 C04         22.6390    10.1240    32.6570 ca         1 V5M      -0.101000
      4 C05         23.0030    10.3810    33.9940 ca         1 V5M      -0.039800
      5 C06         24.2110    11.2110    34.2710 ce         1 V5M      -0.199200
      6 C07         24.8940    11.3710    35.4420 cf         1 V5M      -0.118200
      7 C08         26.0920    12.1940    35.7150 ca         1 V5M      -0.133800
      8 C09         26.2820    13.4780    35.1550 ca         1 V5M       0.093100
      9 C11         27.4610    14.2120    35.4340 ca         1 V5M       0.100100
     10 C13         28.7730    16.2890    35.0970 c3         1 V5M       0.147900
     11 C14         28.4410    13.6600    36.2900 ca         1 V5M      -0.165000
     12 C15         28.2460    12.3930    36.8740 ca         1 V5M       0.005200
     13 C16         29.2590    11.7900    37.7900 ce         1 V5M      -0.240200
     14 C17         30.4590    12.2950    38.2200 cf         1 V5M      -0.213200
     15 C18         31.4080    11.6050    39.1460 c          1 V5M       0.696200
     16 C21         27.0710    11.6760    36.5840 ca         1 V5M      -0.112000
     17 C22         22.2100     9.8580    35.0380 ca         1 V5M      -0.146000
     18 C23         21.0680     9.0770    34.7460 ca         1 V5M       0.045100
     19 C25         20.5260     8.7380    37.1380 c3         1 V5M       0.157900
     20 O01         19.6220     8.0730    33.1170 oh         1 V5M      -0.539100
     21 O10         25.2940    14.0310    34.3850 oh         1 V5M      -0.530100
     22 O12         27.6140    15.4690    34.8660 os         1 V5M      -0.334100
     23 O19         32.4390    12.1910    39.4330 o          1 V5M      -0.721500
     24 O20         31.1190    10.4980    39.5740 o          1 V5M      -0.721500
     25 O24         20.2600     8.5420    35.7360 os         1 V5M      -0.374100
     26 H031        21.2330     9.1530    31.3280 ha         1 V5M       0.126000
     27 H041        23.2380    10.5220    31.8410 ha         1 V5M       0.118000
     28 H061        24.6050    11.7100    33.3840 ha         1 V5M       0.180000
     29 H071        24.5480    10.8120    36.3130 ha         1 V5M       0.172000
     30 H131        28.6820    17.2360    34.5510 h1         1 V5M       0.035700
     31 H132        28.8800    16.5220    36.1650 h1         1 V5M       0.035700
     32 H133        29.6840    15.7830    34.7520 h1         1 V5M       0.035700
     33 H141        29.3460    14.2110    36.5120 ha         1 V5M       0.127000
     34 H161        28.9770    10.8010    38.1590 ha         1 V5M       0.191000
     35 H171        30.7830    13.2750    37.8810 ha         1 V5M       0.140000
     36 H211        26.9230    10.6930    37.0260 ha         1 V5M       0.116000
     37 H221        22.4800    10.0690    36.0670 ha         1 V5M       0.120000
     38 H251        19.7660     8.2280    37.7450 h1         1 V5M       0.041700
     39 H252        21.5070     8.3290    37.4110 h1         1 V5M       0.041700
     40 H253        20.5040     9.8050    37.3940 h1         1 V5M       0.041700
     41 H011        19.2310     7.8170    33.9830 ho         1 V5M       0.478000
     42 H101        24.5140    13.4410    34.4500 ho         1 V5M       0.456000
@<TRIPOS>BOND
     1     1     2 ar  
     2     1    18 ar  
     3     1    20 1   
     4     2     3 ar  
     5     2    26 1   
     6     3     4 ar  
     7     3    27 1   
     8     4     5 1   
     9     4    17 ar  
    10     5     6 2   
    11     5    28 1   
    12     6     7 1   
    13     6    29 1   
    14     7     8 ar  
    15     7    16 ar  
    16     8     9 ar  
    17     8    21 1   
    18     9    11 ar  
    19     9    22 1   
    20    10    22 1   
    21    10    30 1   
    22    10    31 1   
    23    10    32 1   
    24    11    12 ar  
    25    11    33 1   
    26    12    13 1   
    27    12    16 ar  
    28    13    14 2   
    29    13    34 1   
    30    14    15 1   
    31    14    35 1   
    32    15    23 1   
    33    15    24 1   
    34    16    36 1   
    35    17    18 ar  
    36    17    37 1   
    37    18    25 1   
    38    19    25 1   
    39    19    38 1   
    40    19    39 1   
    41    19    40 1   
    42    20    41 1   
    43    21    42 1   
@<TRIPOS>SUBSTRUCTURE
     1 V5M         1 TEMP              0 ****  ****    0 ROOT
