@<TRIPOS>MOLECULE
V5M
   42    43     1     0     0
SMALL
abcg2


@<TRIPOS>ATOM
      1 C02         20.8130     8.8630    33.4470 ca         1 V5M       0.113100
      2 C03         21.6030     9.3800    32.4370 ca         1 V5M      -0.126000
      3 C04         22.7190    10.1490    32.7420 ca         1 V5M      -0.101000
      4 C05         23.0730    10.4110    34.0610 ca         1 V5M      -0.039800
      5 C06         24.2650    11.2130    34.3260 ce         1 V5M      -0.199200
      6 C07         24.8570    11.3980    35.5150 cf         1 V5M      -0.118200
      7 C08         26.0640    12.2000    35.7540 ca         1 V5M      -0.133800
      8 C09         26.2460    13.4640    35.1960 ca         1 V5M       0.093100
      9 C11         27.4340    14.1790    35.4560 ca         1 V5M       0.100100
     10 C13         28.6770    16.1580    35.0840 c3         1 V5M       0.147900
     11 C14         28.4050    13.6350    36.2740 ca         1 V5M      -0.165000
     12 C15         28.2230    12.3780    36.8720 ca         1 V5M       0.005200
     13 C16         29.2170    11.7750    37.7590 ce         1 V5M      -0.240200
     14 C17         30.3890    12.2910    38.1380 cf         1 V5M      -0.213200
     15 C18         31.3470    11.5780    39.0680 c          1 V5M       0.696200
     16 C21         27.0510    11.6900    36.6060 ca         1 V5M      -0.112000
     17 C22         22.2650     9.8920    35.0840 ca         1 V5M      -0.146000
     18 C23         21.1520     9.1290    34.7880 ca         1 V5M       0.045100
     19 C25         20.5780     8.7750    37.0690 c3         1 V5M       0.157900
     20 O01         19.7330     8.1250    33.1330 oh         1 V5M      -0.539100
     21 O10         25.3370    14.0880    34.4230 oh         1 V5M      -0.530100
     22 O12         27.5150    15.3860    34.8650 os         1 V5M      -0.334100
     23 O19         32.3950    12.2040    39.3340 o          1 V5M      -0.721500
     24 O20         31.0210    10.4480    39.4850 o          1 V5M      -0.721500
     25 O24         20.3080     8.5930    35.6940 os         1 V5M      -0.374100
     26 H031        21.3410     9.1810    31.4050 ha         1 V5M       0.126000
     27 H041        23.3240    10.5450    31.9350 ha         1 V5M       0.118000
     28 H061        24.7140    11.6520    33.4390 ha         1 V5M       0.180000
     29 H071        24.4690    10.8870    36.3910 ha         1 V5M       0.172000
     30 H131        28.5480    17.0770    34.5180 h1         1 V5M       0.035700
     31 H132        28.8080    16.4100    36.1400 h1         1 V5M       0.035700
     32 H133        29.5780    15.6500    34.7300 h1         1 V5M       0.035700
     33 H141        29.3150    14.1850    36.4690 ha         1 V5M       0.127000
     34 H161        28.9530    10.7940    38.1440 ha         1 V5M       0.191000
     35 H171        30.7020    13.2690    37.7830 ha         1 V5M       0.140000
     36 H211        26.8880    10.7160    37.0570 ha         1 V5M       0.116000
     37 H221        22.5090    10.1040    36.1170 ha         1 V5M       0.120000
     38 H251        19.7920     8.2550    37.6110 h1         1 V5M       0.041700
     39 H252        21.5440     8.3500    37.3510 h1         1 V5M       0.041700
     40 H253        20.5600     9.8310    37.3490 h1         1 V5M       0.041700
     41 H011        19.2880     7.8250    33.9350 ho         1 V5M       0.478000
     42 H101        24.5000    13.6040    34.4450 ho         1 V5M       0.456000
@<TRIPOS>BOND
     1     1     2 ar  
     2     1    18 ar  
     3     1    20 1   
     4     2     3 ar  
     5     2    26 1   
     6     3     4 ar  
     7     3    27 1   
     8     4     5 1   
     9     4    17 ar  
    10     5     6 2   
    11     5    28 1   
    12     6     7 1   
    13     6    29 1   
    14     7     8 ar  
    15     7    16 ar  
    16     8     9 ar  
    17     8    21 1   
    18     9    11 ar  
    19     9    22 1   
    20    10    22 1   
    21    10    30 1   
    22    10    31 1   
    23    10    32 1   
    24    11    12 ar  
    25    11    33 1   
    26    12    13 1   
    27    12    16 ar  
    28    13    14 2   
    29    13    34 1   
    30    14    15 1   
    31    14    35 1   
    32    15    23 1   
    33    15    24 1   
    34    16    36 1   
    35    17    18 ar  
    36    17    37 1   
    37    18    25 1   
    38    19    25 1   
    39    19    38 1   
    40    19    39 1   
    41    19    40 1   
    42    20    41 1   
    43    21    42 1   
@<TRIPOS>SUBSTRUCTURE
     1 V5M         1 TEMP              0 ****  ****    0 ROOT
