@<TRIPOS>MOLECULE
V5N
   20    20     1     0     0
SMALL
No Charge or Current Charge


@<TRIPOS>ATOM
      1 N          287.7560   303.1830   291.4330 n8         1 V5N      -0.885800
      2 CA         287.4740   303.2240   289.9360 c3         1 V5N      -0.013500
      3 C          286.3420   304.2210   289.4690 c          1 V5N       0.893600
      4 O          285.1720   303.8820   289.6290 o          1 V5N      -0.819800
      5 CB         287.1680   301.8150   289.3400 c3         1 V5N       0.247400
      6 CG         288.2910   300.8250   289.5150 cc         1 V5N      -0.156900
      7 CD2        288.6350   300.0790   290.6150 cd         1 V5N       0.294200
      8 ND1        289.2070   300.4740   288.5430 na         1 V5N      -0.302900
      9 CE1        290.0610   299.5440   289.0820 cc         1 V5N       0.351400
     10 NE2        289.7360   299.2850   290.3390 nd         1 V5N      -0.699000
     11 O2         285.9610   301.3030   289.9120 oh         1 V5N      -0.657800
     12 H          287.9240   304.1360   291.7760 hn         1 V5N       0.335300
     13 H2         286.9080   302.8810   291.9260 hn         1 V5N       0.335300
     14 HA         288.3980   303.5750   289.4580 h1         1 V5N       0.040700
     15 HB2        287.0170   301.9470   288.2600 h1         1 V5N       0.018700
     16 HD2        288.1540   300.0670   291.5860 h4         1 V5N       0.039100
     17 HD1        289.2530   300.8280   287.5960 hn         1 V5N       0.291700
     18 HE1        290.8770   299.1040   288.5200 h5         1 V5N       0.032100
     19 H11        285.3510   302.0870   289.9120 ho         1 V5N       0.476000
     20 OXT        286.6640   305.3120   289.0120 o          1 V5N      -0.819800
@<TRIPOS>BOND
     1     1     2 1   
     2     1    12 1   
     3     1    13 1   
     4     2     3 1   
     5     2     5 1   
     6     2    14 1   
     7     3     4 1   
     8     3    20 1   
     9     5     6 1   
    10     5    11 1   
    11     5    15 1   
    12     6     7 2   
    13     6     8 1   
    14     7    10 1   
    15     7    16 1   
    16     8     9 1   
    17     8    17 1   
    18     9    10 2   
    19     9    18 1   
    20    11    19 1   
@<TRIPOS>SUBSTRUCTURE
     1 V5N         1 TEMP              0 ****  ****    0 ROOT
