@<TRIPOS>MOLECULE
V5N
   20    20     1     0     0
SMALL
bcc


@<TRIPOS>ATOM
      1 N          288.0190   303.2500   291.0830 n8         1 V5N      -0.885800
      2 CA         287.4930   303.1860   289.7220 c3         1 V5N      -0.013500
      3 C          286.3260   304.1800   289.5090 c          1 V5N       0.893600
      4 O          285.1720   303.7620   289.8130 o          1 V5N      -0.819800
      5 CB         287.0630   301.7470   289.3850 c3         1 V5N       0.247400
      6 CG         288.1670   300.7630   289.5830 cc         1 V5N      -0.156900
      7 CD2        288.3290   299.7260   290.4590 cd         1 V5N       0.294200
      8 ND1        289.3040   300.7580   288.8270 na         1 V5N      -0.302900
      9 CE1        290.0910   299.7500   289.2640 cc         1 V5N       0.351400
     10 NE2        289.5310   299.1020   290.2500 nd         1 V5N      -0.699000
     11 O2         285.9740   301.3460   290.1720 oh         1 V5N      -0.657800
     12 H          288.2600   304.2080   291.3050 hn         1 V5N       0.335300
     13 H2         287.2910   302.9880   291.7370 hn         1 V5N       0.335300
     14 HA         288.3050   303.4610   289.0420 h1         1 V5N       0.040700
     15 HB2        286.7970   301.7470   288.3130 h1         1 V5N       0.018700
     16 HD2        287.6460   299.3950   291.2260 h4         1 V5N       0.039100
     17 HD1        289.5200   301.3890   288.0710 hn         1 V5N       0.291700
     18 HE1        291.0530   299.5370   288.8230 h5         1 V5N       0.032100
     19 H11        285.4030   302.1570   290.1610 ho         1 V5N       0.476000
     20 OXT        286.6040   305.3190   289.1140 o          1 V5N      -0.819800
@<TRIPOS>BOND
     1     1     2 1   
     2     1    12 1   
     3     1    13 1   
     4     2     3 1   
     5     2     5 1   
     6     2    14 1   
     7     3     4 1   
     8     3    20 1   
     9     5     6 1   
    10     5    11 1   
    11     5    15 1   
    12     6     7 2   
    13     6     8 1   
    14     7    10 1   
    15     7    16 1   
    16     8     9 1   
    17     8    17 1   
    18     9    10 2   
    19     9    18 1   
    20    11    19 1   
@<TRIPOS>SUBSTRUCTURE
     1 V5N         1 TEMP              0 ****  ****    0 ROOT
