@<TRIPOS>MOLECULE
V5O
   29    30     1     0     0
SMALL
abcg2


@<TRIPOS>ATOM
      1 C7          20.8450    12.9120   -39.2450 ce         1 V5O      -0.205200
      2 C8          22.0410    13.3050   -38.4160 c          1 V5O       0.685200
      3 C9          14.6730    11.1870   -42.7630 c5         1 V5O       0.098000
      4 O1          21.9220    14.2450   -37.5870 o          1 V5O      -0.726000
      5 C1          16.1840    13.8710   -40.5750 ca         1 V5O      -0.136000
      6 C5          18.4750    13.2670   -39.9990 ca         1 V5O      -0.010800
      7 C6          19.6770    13.5640   -39.2230 cf         1 V5O      -0.238200
      8 C4          18.3690    12.1810   -40.8790 ca         1 V5O      -0.104500
      9 C3          17.2090    11.9440   -41.5940 ca         1 V5O      -0.136000
     10 C2          16.0990    12.7900   -41.4590 ca         1 V5O      -0.066000
     11 C12         13.9930    13.4400   -42.5910 c          1 V5O       0.560000
     12 C11         12.9620    12.7230   -43.4410 c5         1 V5O      -0.169400
     13 C10         13.1940    11.2420   -43.1480 c5         1 V5O      -0.092400
     14 N           14.9260    12.5170   -42.1860 n          1 V5O      -0.225400
     15 C           17.3540    14.0960   -39.8660 ca         1 V5O      -0.104500
     16 O           23.0930    12.6400   -38.6330 o          1 V5O      -0.726000
     17 H1          20.9940    12.0550   -39.8930 ha         1 V5O       0.144000
     18 H2          14.8960    10.4140   -42.0290 h1         1 V5O       0.051700
     19 H3          15.3110    11.0290   -43.6370 h1         1 V5O       0.051700
     20 H5          15.3380    14.5250   -40.4450 ha         1 V5O       0.111000
     21 H6          19.6010    14.4200   -38.5580 ha         1 V5O       0.190000
     22 H7          19.2060    11.5070   -41.0110 ha         1 V5O       0.117000
     23 H8          17.1690    11.0990   -42.2660 ha         1 V5O       0.111000
     24 H9          13.1680    12.9720   -44.4860 hc         1 V5O       0.071200
     25 H10         11.9610    13.0830   -43.2050 hc         1 V5O       0.071200
     26 H11         12.5820    10.9280   -42.3020 hc         1 V5O       0.052200
     27 H12         12.9710    10.5930   -43.9930 hc         1 V5O       0.052200
     28 H13         17.4000    14.9350   -39.1830 ha         1 V5O       0.117000
     29 O2          14.0060    14.6370   -42.3420 o          1 V5O      -0.543000
@<TRIPOS>BOND
     1     1     2 1   
     2     1     7 2   
     3     1    17 1   
     4     2     4 1   
     5     2    16 1   
     6     3    13 1   
     7     3    14 1   
     8     3    18 1   
     9     3    19 1   
    10     5    10 ar  
    11     5    15 ar  
    12     5    20 1   
    13     6     7 1   
    14     6     8 ar  
    15     6    15 ar  
    16     7    21 1   
    17     8     9 ar  
    18     8    22 1   
    19     9    10 ar  
    20     9    23 1   
    21    10    14 1   
    22    11    12 1   
    23    11    14 1   
    24    11    29 2   
    25    12    13 1   
    26    12    24 1   
    27    12    25 1   
    28    13    26 1   
    29    13    27 1   
    30    15    28 1   
@<TRIPOS>SUBSTRUCTURE
     1 V5O         1 TEMP              0 ****  ****    0 ROOT
