@<TRIPOS>MOLECULE
V5O
   29    30     1     0     0
SMALL
No Charge or Current Charge


@<TRIPOS>ATOM
      1 C7          20.9310    12.9550   -39.2450 ce         1 V5O      -0.205200
      2 C8          22.1290    13.3270   -38.4280 c          1 V5O       0.685200
      3 C9          14.5780    11.1400   -42.7340 c5         1 V5O       0.098000
      4 O1          22.0450    14.2580   -37.6420 o          1 V5O      -0.726000
      5 C1          16.1390    13.7810   -40.4690 ca         1 V5O      -0.136000
      6 C5          18.4770    13.2690   -39.9690 ca         1 V5O      -0.010800
      7 C6          19.7050    13.5670   -39.2050 cf         1 V5O      -0.238200
      8 C4          18.4300    12.2400   -40.9300 ca         1 V5O      -0.104500
      9 C3          17.2450    11.9810   -41.6400 ca         1 V5O      -0.136000
     10 C2          16.0610    12.7050   -41.3810 ca         1 V5O      -0.066000
     11 C12         13.9820    13.4720   -42.6570 c          1 V5O       0.560000
     12 C11         13.0520    12.7380   -43.6220 c5         1 V5O      -0.169400
     13 C10         13.0670    11.2890   -43.0810 c5         1 V5O      -0.092400
     14 N           14.9220    12.4990   -42.2510 n          1 V5O      -0.225400
     15 C           17.3220    14.0410   -39.7550 ca         1 V5O      -0.104500
     16 O           23.1470    12.6740   -38.5890 o          1 V5O      -0.726000
     17 H1          21.0900    12.1180   -39.9180 ha         1 V5O       0.144000
     18 H2          14.7510    10.3720   -41.9700 h1         1 V5O       0.051700
     19 H3          15.1700    10.8880   -43.6240 h1         1 V5O       0.051700
     20 H5          15.2750    14.4040   -40.2630 ha         1 V5O       0.111000
     21 H6          19.5980    14.4040   -38.5100 ha         1 V5O       0.190000
     22 H7          19.3100    11.6430   -41.1450 ha         1 V5O       0.117000
     23 H8          17.2570    11.2020   -42.3990 ha         1 V5O       0.111000
     24 H9          13.5210    12.7420   -44.6130 hc         1 V5O       0.071200
     25 H10         12.0680    13.2140   -43.6830 hc         1 V5O       0.071200
     26 H11         12.4430    11.1940   -42.1840 hc         1 V5O       0.052200
     27 H12         12.7210    10.5480   -43.8110 hc         1 V5O       0.052200
     28 H13         17.3370    14.8540   -39.0330 ha         1 V5O       0.117000
     29 O2          13.8450    14.6010   -42.2040 o          1 V5O      -0.543000
@<TRIPOS>BOND
     1     1     2 1   
     2     1     7 2   
     3     1    17 1   
     4     2     4 1   
     5     2    16 1   
     6     3    13 1   
     7     3    14 1   
     8     3    18 1   
     9     3    19 1   
    10     5    10 ar  
    11     5    15 ar  
    12     5    20 1   
    13     6     7 1   
    14     6     8 ar  
    15     6    15 ar  
    16     7    21 1   
    17     8     9 ar  
    18     8    22 1   
    19     9    10 ar  
    20     9    23 1   
    21    10    14 1   
    22    11    12 1   
    23    11    14 1   
    24    11    29 2   
    25    12    13 1   
    26    12    24 1   
    27    12    25 1   
    28    13    26 1   
    29    13    27 1   
    30    15    28 1   
@<TRIPOS>SUBSTRUCTURE
     1 V5O         1 TEMP              0 ****  ****    0 ROOT
