@<TRIPOS>MOLECULE
V5Q
   89    95     1     0     0
SMALL
No Charge or Current Charge


@<TRIPOS>ATOM
      1 C10        136.1530   138.7030   153.9840 c3         1 V5Q      -0.039100
      2 C13        135.9520   135.1450   155.4130 ca         1 V5Q      -0.086500
      3 C15        137.4340   135.1120   153.4890 ca         1 V5Q      -0.086500
      4 C20        137.4790   131.0820   154.3790 cc         1 V5Q       0.578500
      5 C22        138.0470   129.8320   153.8540 ca         1 V5Q      -0.159500
      6 C24        140.0540   128.5770   153.1520 ca         1 V5Q       0.088100
      7 C26        142.2700   129.6980   153.0360 c3         1 V5Q       0.144900
      8 C01        128.8110   134.6290   153.7740 c3         1 V5Q       0.144900
      9 C03        129.6490   136.9150   153.2800 ca         1 V5Q       0.128100
     10 C04        130.9260   136.4080   152.9440 ca         1 V5Q      -0.193000
     11 C05        131.9740   137.2650   152.5710 ca         1 V5Q      -0.037300
     12 C06        131.7570   138.6550   152.5200 ca         1 V5Q      -0.145300
     13 C07        132.8820   139.6070   152.0870 c6         1 V5Q       0.214100
     14 C09        134.6760   139.0920   153.7120 c3         1 V5Q       0.173800
     15 C11        136.3850   137.2070   154.1790 ca         1 V5Q      -0.054300
     16 C12        135.7570   136.5250   155.2360 ca         1 V5Q      -0.106500
     17 C14        136.7870   134.4140   154.5360 ca         1 V5Q      -0.011200
     18 C16        137.2390   136.4930   153.3180 ca         1 V5Q      -0.106500
     19 C23        139.4320   129.7740   153.5820 ca         1 V5Q      -0.139000
     20 C27        139.2540   127.4050   152.9950 ca         1 V5Q       0.119100
     21 C29        141.0920   125.8580   152.2860 c3         1 V5Q       0.150900
     22 C30        137.8740   127.4770   153.2460 ca         1 V5Q      -0.139000
     23 C31        137.2570   128.6730   153.6480 ca         1 V5Q       0.007000
     24 C33        134.9070   129.5450   153.2680 c          1 V5Q       0.579100
     25 C35        133.4290   129.3700   153.7440 c6         1 V5Q       0.092300
     26 C36        133.2080   128.7210   155.1320 c6         1 V5Q      -0.200400
     27 C37        133.4870   129.7280   156.2410 c          1 V5Q       0.598700
     28 C39        133.1300   131.1550   155.9460 ca         1 V5Q      -0.248600
     29 C40        132.7370   131.5260   154.6430 ca         1 V5Q       0.158100
     30 C42        132.3970   132.8570   154.3590 ca         1 V5Q      -0.148000
     31 C43        132.4630   133.8350   155.3660 ca         1 V5Q      -0.056000
     32 C44        132.8570   133.4730   156.6640 ca         1 V5Q      -0.153000
     33 C45        133.1910   132.1390   156.9570 ca         1 V5Q      -0.021000
     34 C46        134.3280   137.7110   151.6290 c6         1 V5Q       0.163800
     35 C47        133.3550   136.6800   152.2560 c6         1 V5Q      -0.070100
     36 C48        130.4900   139.1710   152.8430 ca         1 V5Q      -0.086000
     37 C49        129.4310   138.3270   153.2250 ca         1 V5Q       0.067100
     38 C51        127.0260   138.3040   153.9300 c3         1 V5Q       0.149900
     39 N08        134.2440   139.0460   152.2860 n3         1 V5Q      -0.712600
     40 N17        136.9520   133.0230   154.6910 na         1 V5Q       0.357800
     41 N18        136.2980   132.2950   155.6550 nd         1 V5Q      -0.161800
     42 N19        136.6430   131.0580   155.4530 nc         1 V5Q      -0.420000
     43 N21        137.7410   132.2630   153.8740 nd         1 V5Q      -0.522800
     44 N32        135.8450   128.6690   153.7990 ns         1 V5Q      -0.140000
     45 O25        141.4170   128.5460   152.9010 os         1 V5Q      -0.324100
     46 O28        139.7190   126.1590   152.5920 os         1 V5Q      -0.347100
     47 O34        135.2230   130.4320   152.4800 o          1 V5Q      -0.572100
     48 O38        134.0140   129.3830   157.2900 o          1 V5Q      -0.507100
     49 O41        132.6640   130.5950   153.6300 os         1 V5Q      -0.330100
     50 O50        128.2340   138.9710   153.5210 os         1 V5Q      -0.345100
     51 H1         136.7830   139.1030   153.1800 hc         1 V5Q       0.060200
     52 H2         136.4730   139.2220   154.8950 hc         1 V5Q       0.060200
     53 H3         135.4420   134.6520   156.2370 ha         1 V5Q       0.141500
     54 H4         138.0880   134.5880   152.7950 ha         1 V5Q       0.141500
     55 H5         143.3030   129.4350   152.7770 h1         1 V5Q       0.041367
     56 H6         141.9460   130.5040   152.3650 h1         1 V5Q       0.041367
     57 H7         142.2640   130.0700   154.0680 h1         1 V5Q       0.041367
     58 H8         127.8750   134.1540   154.0940 h1         1 V5Q       0.041033
     59 H9         129.1020   134.1900   152.8110 h1         1 V5Q       0.041033
     60 H10        129.5820   134.3930   154.5190 h1         1 V5Q       0.041033
     61 H11        131.1280   135.3430   152.9680 ha         1 V5Q       0.118000
     62 H12        132.7770   140.5620   152.6240 h1         1 V5Q       0.060200
     63 H13        132.7310   139.8380   151.0220 h1         1 V5Q       0.060200
     64 H14        134.5570   140.1240   154.0670 h1         1 V5Q       0.037200
     65 H15        134.0160   138.4780   154.3390 h1         1 V5Q       0.037200
     66 H16        135.1070   137.0630   155.9230 ha         1 V5Q       0.125000
     67 H17        137.7450   137.0070   152.5030 ha         1 V5Q       0.125000
     68 H18        140.0170   130.6760   153.7370 ha         1 V5Q       0.133000
     69 H19        141.1920   124.8040   152.0010 h1         1 V5Q       0.038367
     70 H20        141.4500   126.4670   151.4450 h1         1 V5Q       0.038367
     71 H21        141.7360   126.0320   153.1570 h1         1 V5Q       0.038367
     72 H22        137.2710   126.5840   153.0980 ha         1 V5Q       0.167000
     73 H23        133.0200   128.6720   152.9990 h1         1 V5Q       0.105700
     74 H24        132.1320   128.5130   155.1910 hc         1 V5Q       0.093700
     75 H25        133.7400   127.7760   155.3020 hc         1 V5Q       0.093700
     76 H26        132.0960   133.1300   153.3510 ha         1 V5Q       0.135000
     77 H27        132.2110   134.8690   155.1440 ha         1 V5Q       0.115000
     78 H28        132.9060   134.2270   157.4460 ha         1 V5Q       0.121000
     79 H29        133.4970   131.8750   157.9680 ha         1 V5Q       0.134000
     80 H30        135.3520   137.3150   151.6500 h1         1 V5Q       0.056200
     81 H31        134.0700   137.8170   150.5640 h1         1 V5Q       0.056200
     82 H32        133.2550   135.8210   151.5790 hc         1 V5Q       0.055200
     83 H33        133.7900   136.2830   153.1820 hc         1 V5Q       0.055200
     84 H34        130.3190   140.2440   152.7980 ha         1 V5Q       0.124000
     85 H35        126.2300   139.0390   154.1000 h1         1 V5Q       0.034033
     86 H36        126.6800   137.6090   153.1550 h1         1 V5Q       0.034033
     87 H37        127.1800   137.7550   154.8680 h1         1 V5Q       0.034033
     88 H39        135.4780   127.9320   154.3870 hn         1 V5Q       0.202000
     89 O02        128.6310   136.0520   153.6560 os         1 V5Q      -0.325100
@<TRIPOS>BOND
     1     1    14 1   
     2     1    15 1   
     3     1    51 1   
     4     1    52 1   
     5     2    16 ar  
     6     2    17 ar  
     7     2    53 1   
     8     3    17 ar  
     9     3    18 ar  
    10     3    54 1   
    11     4     5 1   
    12     4    42 1   
    13     4    43 2   
    14     5    19 ar  
    15     5    23 ar  
    16     6    19 ar  
    17     6    20 ar  
    18     6    45 1   
    19     7    45 1   
    20     7    55 1   
    21     7    56 1   
    22     7    57 1   
    23     8    58 1   
    24     8    59 1   
    25     8    60 1   
    26     8    89 1   
    27     9    10 ar  
    28     9    37 ar  
    29     9    89 1   
    30    10    11 ar  
    31    10    61 1   
    32    11    12 ar  
    33    11    35 1   
    34    12    13 1   
    35    12    36 ar  
    36    13    39 1   
    37    13    62 1   
    38    13    63 1   
    39    14    39 1   
    40    14    64 1   
    41    14    65 1   
    42    15    16 ar  
    43    15    18 ar  
    44    16    66 1   
    45    17    40 1   
    46    18    67 1   
    47    19    68 1   
    48    20    22 ar  
    49    20    46 1   
    50    21    46 1   
    51    21    69 1   
    52    21    70 1   
    53    21    71 1   
    54    22    23 ar  
    55    22    72 1   
    56    23    44 1   
    57    24    25 1   
    58    24    44 1   
    59    24    47 2   
    60    25    26 1   
    61    25    49 1   
    62    25    73 1   
    63    26    27 1   
    64    26    74 1   
    65    26    75 1   
    66    27    28 1   
    67    27    48 2   
    68    28    29 ar  
    69    28    33 ar  
    70    29    30 ar  
    71    29    49 1   
    72    30    31 ar  
    73    30    76 1   
    74    31    32 ar  
    75    31    77 1   
    76    32    33 ar  
    77    32    78 1   
    78    33    79 1   
    79    34    35 1   
    80    34    39 1   
    81    34    80 1   
    82    34    81 1   
    83    35    82 1   
    84    35    83 1   
    85    36    37 ar  
    86    36    84 1   
    87    37    50 1   
    88    38    50 1   
    89    38    85 1   
    90    38    86 1   
    91    38    87 1   
    92    40    41 1   
    93    40    43 1   
    94    41    42 2   
    95    44    88 1   
@<TRIPOS>SUBSTRUCTURE
     1 V5Q         1 TEMP              0 ****  ****    0 ROOT
