@<TRIPOS>MOLECULE
V5Q
   89    95     1     0     0
SMALL
abcg2


@<TRIPOS>ATOM
      1 C10        135.5770   138.8580   153.9020 c3         1 V5Q      -0.039100
      2 C13        134.8790   135.1810   154.5580 ca         1 V5Q      -0.086500
      3 C15        136.8060   135.3410   153.1130 ca         1 V5Q      -0.086500
      4 C20        136.7160   131.2580   153.6220 cc         1 V5Q       0.578500
      5 C22        137.5990   130.1160   153.4050 ca         1 V5Q      -0.159500
      6 C24        139.8180   129.3920   152.7290 ca         1 V5Q       0.088100
      7 C26        141.5090   130.8990   152.0440 c3         1 V5Q       0.144900
      8 C01        127.6640   136.7970   151.9520 c3         1 V5Q       0.144900
      9 C03        129.1140   138.6710   151.9200 ca         1 V5Q       0.128100
     10 C04        130.2540   137.8900   151.7940 ca         1 V5Q      -0.193000
     11 C05        131.5240   138.4660   151.7150 ca         1 V5Q      -0.037300
     12 C06        131.6560   139.8490   151.7690 ca         1 V5Q      -0.145300
     13 C07        133.0200   140.4940   151.6530 c6         1 V5Q       0.214100
     14 C09        134.2430   139.4610   153.4540 c3         1 V5Q       0.173800
     15 C11        135.6830   137.3570   153.8570 ca         1 V5Q      -0.054300
     16 C12        134.7850   136.5610   154.5680 ca         1 V5Q      -0.106500
     17 C14        135.8910   134.5800   153.8220 ca         1 V5Q      -0.011200
     18 C16        136.6950   136.7230   153.1420 ca         1 V5Q      -0.106500
     19 C23        138.8950   130.3950   152.9560 ca         1 V5Q      -0.139000
     20 C27        139.4210   128.0650   152.9560 ca         1 V5Q       0.119100
     21 C29        141.1420   126.7370   153.8100 c3         1 V5Q       0.150900
     22 C30        138.1470   127.7760   153.3980 ca         1 V5Q      -0.139000
     23 C31        137.2080   128.7860   153.6290 ca         1 V5Q       0.007000
     24 C33        135.3710   127.3280   154.4440 c          1 V5Q       0.579100
     25 C35        133.9070   127.4330   154.9100 c6         1 V5Q       0.092300
     26 C36        133.5210   126.2580   155.7850 c6         1 V5Q      -0.200400
     27 C37        134.2940   126.2920   157.0760 c          1 V5Q       0.598700
     28 C39        134.6460   127.6480   157.5430 ca         1 V5Q      -0.248600
     29 C40        134.2760   128.7690   156.7920 ca         1 V5Q       0.158100
     30 C42        134.5130   130.0530   157.2750 ca         1 V5Q      -0.148000
     31 C43        135.1380   130.2130   158.4980 ca         1 V5Q      -0.056000
     32 C44        135.5380   129.1080   159.2490 ca         1 V5Q      -0.153000
     33 C45        135.2870   127.8380   158.7720 ca         1 V5Q      -0.021000
     34 C46        133.9970   138.3800   151.2610 c6         1 V5Q       0.163800
     35 C47        132.7380   137.5830   151.5940 c6         1 V5Q      -0.070100
     36 C48        130.5100   140.6320   151.8990 ca         1 V5Q      -0.086000
     37 C49        129.2520   140.0690   151.9670 ca         1 V5Q       0.067100
     38 C51        127.7250   141.1160   153.3940 c3         1 V5Q       0.149900
     39 N08        134.1180   139.6180   152.0140 n3         1 V5Q      -0.712600
     40 N17        135.9880   133.1670   153.8000 na         1 V5Q       0.357800
     41 N18        134.9760   132.3910   154.0590 nd         1 V5Q      -0.161800
     42 N19        135.4130   131.1840   153.9550 nc         1 V5Q      -0.420000
     43 N21        137.0920   132.5200   153.5220 nd         1 V5Q      -0.522800
     44 N32        135.9110   128.5120   154.0770 ns         1 V5Q      -0.140000
     45 O25        141.0760   129.5770   152.2960 os         1 V5Q      -0.324100
     46 O28        140.2900   127.0520   152.7150 os         1 V5Q      -0.347100
     47 O34        135.9190   126.2440   154.3990 o          1 V5Q      -0.572100
     48 O38        134.5630   125.2930   157.7080 o          1 V5Q      -0.507100
     49 O41        133.6800   128.6600   155.5830 os         1 V5Q      -0.330100
     50 O50        128.1440   140.8560   152.0630 os         1 V5Q      -0.345100
     51 H1         136.3830   139.3070   153.3160 hc         1 V5Q       0.060200
     52 H2         135.7390   139.1720   154.9370 hc         1 V5Q       0.060200
     53 H3         134.1780   134.5860   155.1260 ha         1 V5Q       0.141500
     54 H4         137.5910   134.8710   152.5380 ha         1 V5Q       0.141500
     55 H5         142.5400   130.8260   151.7080 h1         1 V5Q       0.041367
     56 H6         140.9160   131.3790   151.2610 h1         1 V5Q       0.041367
     57 H7         141.4740   131.5190   152.9430 h1         1 V5Q       0.041367
     58 H8         126.5930   136.6300   152.0310 h1         1 V5Q       0.041033
     59 H9         128.0180   136.3620   151.0130 h1         1 V5Q       0.041033
     60 H10        128.1600   136.2870   152.7830 h1         1 V5Q       0.041033
     61 H11        130.1780   136.8100   151.7510 ha         1 V5Q       0.118000
     62 H12        133.0590   141.3950   152.2700 h1         1 V5Q       0.060200
     63 H13        133.1740   140.8270   150.6200 h1         1 V5Q       0.060200
     64 H14        134.1870   140.4640   153.8820 h1         1 V5Q       0.037200
     65 H15        133.4120   138.9000   153.9080 h1         1 V5Q       0.037200
     66 H16        134.0010   137.0220   155.1570 ha         1 V5Q       0.125000
     67 H17        137.4070   137.3170   152.5830 ha         1 V5Q       0.125000
     68 H18        139.1620   131.4290   152.7880 ha         1 V5Q       0.133000
     69 H19        141.7870   125.9220   153.4890 h1         1 V5Q       0.038367
     70 H20        141.7660   127.5850   154.1010 h1         1 V5Q       0.038367
     71 H21        140.5650   126.4090   154.6790 h1         1 V5Q       0.038367
     72 H22        137.8870   126.7410   153.5520 ha         1 V5Q       0.167000
     73 H23        133.2750   127.4610   154.0190 h1         1 V5Q       0.105700
     74 H24        132.4550   126.3350   156.0260 hc         1 V5Q       0.093700
     75 H25        133.6640   125.3100   155.2700 hc         1 V5Q       0.093700
     76 H26        134.2200   130.9110   156.6850 ha         1 V5Q       0.135000
     77 H27        135.3280   131.2130   158.8660 ha         1 V5Q       0.115000
     78 H28        136.0350   129.2460   160.1990 ha         1 V5Q       0.121000
     79 H29        135.5760   126.9720   159.3520 ha         1 V5Q       0.134000
     80 H30        134.8810   137.7600   151.4080 h1         1 V5Q       0.056200
     81 H31        133.9860   138.6480   150.2000 h1         1 V5Q       0.056200
     82 H32        132.5750   136.8240   150.8240 hc         1 V5Q       0.055200
     83 H33        132.8760   137.0290   152.5290 hc         1 V5Q       0.055200
     84 H34        130.5980   141.7130   151.9420 ha         1 V5Q       0.124000
     85 H35        126.8470   141.7570   153.3380 h1         1 V5Q       0.034033
     86 H36        127.4550   140.2010   153.9270 h1         1 V5Q       0.034033
     87 H37        128.5000   141.6350   153.9640 h1         1 V5Q       0.034033
     88 H39        135.3090   129.3280   154.1630 hn         1 V5Q       0.202000
     89 O02        127.8570   138.1950   151.9950 os         1 V5Q      -0.325100
@<TRIPOS>BOND
     1     1    14 1   
     2     1    15 1   
     3     1    51 1   
     4     1    52 1   
     5     2    16 ar  
     6     2    17 ar  
     7     2    53 1   
     8     3    17 ar  
     9     3    18 ar  
    10     3    54 1   
    11     4     5 1   
    12     4    42 1   
    13     4    43 2   
    14     5    19 ar  
    15     5    23 ar  
    16     6    19 ar  
    17     6    20 ar  
    18     6    45 1   
    19     7    45 1   
    20     7    55 1   
    21     7    56 1   
    22     7    57 1   
    23     8    58 1   
    24     8    59 1   
    25     8    60 1   
    26     8    89 1   
    27     9    10 ar  
    28     9    37 ar  
    29     9    89 1   
    30    10    11 ar  
    31    10    61 1   
    32    11    12 ar  
    33    11    35 1   
    34    12    13 1   
    35    12    36 ar  
    36    13    39 1   
    37    13    62 1   
    38    13    63 1   
    39    14    39 1   
    40    14    64 1   
    41    14    65 1   
    42    15    16 ar  
    43    15    18 ar  
    44    16    66 1   
    45    17    40 1   
    46    18    67 1   
    47    19    68 1   
    48    20    22 ar  
    49    20    46 1   
    50    21    46 1   
    51    21    69 1   
    52    21    70 1   
    53    21    71 1   
    54    22    23 ar  
    55    22    72 1   
    56    23    44 1   
    57    24    25 1   
    58    24    44 1   
    59    24    47 2   
    60    25    26 1   
    61    25    49 1   
    62    25    73 1   
    63    26    27 1   
    64    26    74 1   
    65    26    75 1   
    66    27    28 1   
    67    27    48 2   
    68    28    29 ar  
    69    28    33 ar  
    70    29    30 ar  
    71    29    49 1   
    72    30    31 ar  
    73    30    76 1   
    74    31    32 ar  
    75    31    77 1   
    76    32    33 ar  
    77    32    78 1   
    78    33    79 1   
    79    34    35 1   
    80    34    39 1   
    81    34    80 1   
    82    34    81 1   
    83    35    82 1   
    84    35    83 1   
    85    36    37 ar  
    86    36    84 1   
    87    37    50 1   
    88    38    50 1   
    89    38    85 1   
    90    38    86 1   
    91    38    87 1   
    92    40    41 1   
    93    40    43 1   
    94    41    42 2   
    95    44    88 1   
@<TRIPOS>SUBSTRUCTURE
     1 V5Q         1 TEMP              0 ****  ****    0 ROOT
