@<TRIPOS>MOLECULE
V5R
   21    21     1     0     0
SMALL
abcg2


@<TRIPOS>ATOM
      1 N1          27.5990   -11.6950   -15.2420 ns         1 V5R      -0.136000
      2 C4          30.9930   -12.0880   -13.8620 ca         1 V5R      -0.067600
      3 C5          30.7350   -11.9890   -12.4970 ca         1 V5R       0.122000
      4 C6          29.4490   -11.7970   -12.0160 ca         1 V5R      -0.104000
      5 C7          26.2540   -11.5400   -15.0840 c          1 V5R       0.598100
      6 C8          25.4670   -11.4790   -16.3720 c3         1 V5R      -0.178100
      7 C1          28.3780   -11.6950   -12.8950 ca         1 V5R      -0.156000
      8 C2          28.6100   -11.7890   -14.2710 ca         1 V5R      -0.055000
      9 C3          29.9150   -11.9840   -14.7330 ca         1 V5R      -0.145000
     10 O1          25.7010   -11.4530   -13.9920 o          1 V5R      -0.610100
     11 O2          33.0500   -11.2680   -14.6820 o          1 V5R      -0.704500
     12 O3          32.7510   -13.4950   -14.5690 o          1 V5R      -0.704500
     13 H1          27.9240   -11.7620   -16.1950 hn         1 V5R       0.144000
     14 H2          29.2770   -11.7240   -10.9500 ha         1 V5R       0.106000
     15 H3          24.7100   -12.2650   -16.3540 hc         1 V5R       0.055033
     16 H4          24.9480   -10.5200   -16.4160 hc         1 V5R       0.055033
     17 H5          26.0820   -11.5940   -17.2630 hc         1 V5R       0.055033
     18 H6          27.3810   -11.5460   -12.5210 ha         1 V5R       0.131000
     19 H7          30.0910   -12.0580   -15.8010 ha         1 V5R       0.111000
     20 CL1         32.0590   -12.1080   -11.3460 cl         1 V5R      -0.234000
     21 C9          32.3970   -12.3030   -14.4180 c          1 V5R       0.716600
@<TRIPOS>BOND
     1     1     5 1   
     2     1     8 1   
     3     1    13 1   
     4     2     3 ar  
     5     2     9 ar  
     6     2    21 1   
     7     3     4 ar  
     8     3    20 1   
     9     4     7 ar  
    10     4    14 1   
    11     5     6 1   
    12     5    10 2   
    13     6    15 1   
    14     6    16 1   
    15     6    17 1   
    16     7     8 ar  
    17     7    18 1   
    18     8     9 ar  
    19     9    19 1   
    20    11    21 1   
    21    12    21 1   
@<TRIPOS>SUBSTRUCTURE
     1 V5R         1 TEMP              0 ****  ****    0 ROOT
