@<TRIPOS>MOLECULE
V5R
   21    21     1     0     0
SMALL
No Charge or Current Charge


@<TRIPOS>ATOM
      1 N1          27.5460   -11.6860   -15.2010 ns         1 V5R      -0.136000
      2 C4          31.0130   -12.0320   -13.8600 ca         1 V5R      -0.067600
      3 C5          30.7850   -12.0470   -12.4690 ca         1 V5R       0.122000
      4 C6          29.4750   -11.9470   -11.9720 ca         1 V5R      -0.104000
      5 C7          26.1660   -11.5750   -15.0720 c          1 V5R       0.598100
      6 C8          25.4280   -11.4670   -16.4050 c3         1 V5R      -0.178100
      7 C1          28.3840   -11.8300   -12.8510 ca         1 V5R      -0.156000
      8 C2          28.5960   -11.8060   -14.2460 ca         1 V5R      -0.055000
      9 C3          29.9120   -11.9050   -14.7360 ca         1 V5R      -0.145000
     10 O1          25.5600   -11.5620   -14.0070 o          1 V5R      -0.610100
     11 O2          32.8260   -11.2130   -15.0980 o          1 V5R      -0.704500
     12 O3          33.0260   -13.1820   -14.2430 o          1 V5R      -0.704500
     13 H1          27.8690   -11.6790   -16.1600 hn         1 V5R       0.144000
     14 H2          29.3040   -11.9560   -10.8990 ha         1 V5R       0.106000
     15 H3          24.3430   -11.3810   -16.2830 hc         1 V5R       0.055033
     16 H4          25.8390   -10.6240   -16.9740 hc         1 V5R       0.055033
     17 H5          25.6980   -12.3230   -17.0340 hc         1 V5R       0.055033
     18 H6          27.3880   -11.7550   -12.4260 ha         1 V5R       0.131000
     19 H7          30.0900   -11.8890   -15.8100 ha         1 V5R       0.111000
     20 Cl1         32.1150   -12.1550   -11.3140 cl         1 V5R      -0.234000
     21 C9          32.4070   -12.1400   -14.4190 c          1 V5R       0.716600
@<TRIPOS>BOND
     1     1     5 1   
     2     1     8 1   
     3     1    13 1   
     4     2     3 ar  
     5     2     9 ar  
     6     2    21 1   
     7     3     4 ar  
     8     3    20 1   
     9     4     7 ar  
    10     4    14 1   
    11     5     6 1   
    12     5    10 2   
    13     6    15 1   
    14     6    16 1   
    15     6    17 1   
    16     7     8 ar  
    17     7    18 1   
    18     8     9 ar  
    19     9    19 1   
    20    11    21 1   
    21    12    21 1   
@<TRIPOS>SUBSTRUCTURE
     1 V5R         1 TEMP              0 ****  ****    0 ROOT
