@<TRIPOS>MOLECULE
V5S
   21    21     1     0     0
SMALL
No Charge or Current Charge


@<TRIPOS>ATOM
      1 N            3.9460    12.4550    23.6840 nu         1 V5S      -0.942200
      2 C            3.4200    13.4400    21.4140 c3         1 V5S       0.123600
      3 O            2.1780    14.0340    21.8420 oh         1 V5S      -0.665000
      4 Br           2.9600     6.4270    23.3130 br         1 V5S      -0.110100
      5 C5           3.2760     8.3100    23.4240 ca         1 V5S      -0.071900
      6 C4           4.3720     8.8770    22.7530 ca         1 V5S      -0.039500
      7 C3           4.6010    10.2620    22.8360 ca         1 V5S      -0.190500
      8 C6           2.4130     9.1210    24.1800 ca         1 V5S      -0.039500
      9 C7           2.6480    10.5060    24.2600 ca         1 V5S      -0.190500
     10 C2           3.7380    11.0800    23.5860 ca         1 V5S       0.333000
     11 C1           4.4350    13.3290    22.5890 c3         1 V5S       0.211800
     12 H10          3.2410    12.4380    21.0000 h1         1 V5S       0.028200
     13 H11          3.8720    14.0470    20.6190 h1         1 V5S       0.028200
     14 H            1.5720    14.0240    21.0670 ho         1 V5S       0.448000
     15 H7           5.0420     8.2480    22.1710 ha         1 V5S       0.124000
     16 H6           5.4550    10.6910    22.3210 ha         1 V5S       0.114000
     17 H8           1.5660     8.6810    24.7010 ha         1 V5S       0.124000
     18 H9           1.9780    11.1290    24.8440 ha         1 V5S       0.114000
     19 H13          4.6230    14.3400    22.9780 h1         1 V5S       0.060700
     20 H4           5.3930    12.9580    22.1990 h1         1 V5S       0.060700
     21 H1           3.2780    12.9130    24.3060 hn         1 V5S       0.480000
@<TRIPOS>BOND
     1     1    10 1   
     2     1    11 1   
     3     1    21 1   
     4     2     3 1   
     5     2    11 1   
     6     2    12 1   
     7     2    13 1   
     8     3    14 1   
     9     4     5 1   
    10     5     6 ar  
    11     5     8 ar  
    12     6     7 ar  
    13     6    15 1   
    14     7    10 ar  
    15     7    16 1   
    16     8     9 ar  
    17     8    17 1   
    18     9    10 ar  
    19     9    18 1   
    20    11    19 1   
    21    11    20 1   
@<TRIPOS>SUBSTRUCTURE
     1 V5S         1 TEMP              0 ****  ****    0 ROOT
