@<TRIPOS>MOLECULE
V5S
   21    21     1     0     0
SMALL
bcc


@<TRIPOS>ATOM
      1 N            3.7570    12.4740    23.6870 nu         1 V5S      -0.748600
      2 C            3.5750    13.4140    21.3810 c3         1 V5S       0.100400
      3 O            2.3280    14.0000    21.6780 oh         1 V5S      -0.602800
      4 BR           3.1000     6.4520    23.3640 br         1 V5S      -0.110100
      5 C5           3.3080     8.3310    23.4530 ca         1 V5S      -0.071900
      6 C4           4.2220     8.9660    22.6280 ca         1 V5S      -0.057500
      7 C3           4.3690    10.3440    22.6820 ca         1 V5S      -0.208500
      8 C6           2.5380     9.0740    24.3370 ca         1 V5S      -0.057500
      9 C7           2.6870    10.4470    24.3910 ca         1 V5S      -0.208500
     10 C2           3.6070    11.1180    23.5680 ca         1 V5S       0.194600
     11 C1           4.3710    13.2940    22.6690 c3         1 V5S       0.211800
     12 H10          3.4550    12.4240    20.9240 h1         1 V5S       0.028200
     13 H11          4.1570    14.0210    20.6750 h1         1 V5S       0.028200
     14 H            1.7950    13.9990    20.8780 ho         1 V5S       0.409000
     15 H7           4.8290     8.4020    21.9320 ha         1 V5S       0.142000
     16 H6           5.0920    10.8030    22.0210 ha         1 V5S       0.132000
     17 H8           1.8160     8.5960    24.9870 ha         1 V5S       0.142000
     18 H9           2.0790    11.0150    25.0840 ha         1 V5S       0.132000
     19 H13          4.5200    14.2860    23.1000 h1         1 V5S       0.060700
     20 H4           5.3690    12.9180    22.4340 h1         1 V5S       0.060700
     21 H1           3.0310    12.9320    24.2130 hn         1 V5S       0.424800
@<TRIPOS>BOND
     1     1    10 1   
     2     1    11 1   
     3     1    21 1   
     4     2     3 1   
     5     2    11 1   
     6     2    12 1   
     7     2    13 1   
     8     3    14 1   
     9     4     5 1   
    10     5     6 ar  
    11     5     8 ar  
    12     6     7 ar  
    13     6    15 1   
    14     7    10 ar  
    15     7    16 1   
    16     8     9 ar  
    17     8    17 1   
    18     9    10 ar  
    19     9    18 1   
    20    11    19 1   
    21    11    20 1   
@<TRIPOS>SUBSTRUCTURE
     1 V5S         1 TEMP              0 ****  ****    0 ROOT
