@<TRIPOS>MOLECULE
V5T
   26    28     1     0     0
SMALL
abcg2


@<TRIPOS>ATOM
      1 C4          20.7850   -19.4090     3.3790 ca         1 V5T       0.276800
      2 C5          22.0770   -19.5960     3.8910 ca         1 V5T      -0.291000
      3 C6          22.8560   -20.5440     3.2650 ca         1 V5T       0.149900
      4 N1          22.4470   -21.2680     2.2310 nb         1 V5T      -0.252000
      5 N3          20.3630   -20.1260     2.3410 nb         1 V5T      -0.260000
      6 CAD         16.7670   -16.5910     4.3170 ca         1 V5T      -0.129000
      7 CAC         15.9390   -17.0760     3.3240 ca         1 V5T      -0.091000
      8 CAB         16.3770   -18.0800     2.4480 ca         1 V5T      -0.142000
      9 CAA         17.6460   -18.6190     2.5440 ca         1 V5T      -0.045000
     10 CAF         18.5110   -18.1470     3.5400 ca         1 V5T      -0.055800
     11 CAE         18.0440   -17.1380     4.4080 ca         1 V5T      -0.064200
     12 NAG         19.0550   -16.8460     5.2840 na         1 V5T      -0.212700
     13 CAH         20.1300   -17.6150     5.0120 cc         1 V5T      -0.123100
     14 CAI         19.8620   -18.4440     3.9450 cd         1 V5T      -0.233000
     15 C2          21.2030   -21.0210     1.8150 ca         1 V5T       0.378900
     16 NAP         20.7360   -21.7640     0.7870 nv         1 V5T      -1.060900
     17 H1          22.4620   -19.0350     4.7290 ha         1 V5T       0.125000
     18 H2          23.8660   -20.7330     3.6130 h4         1 V5T       0.016100
     19 H4          14.9400   -16.6750     3.2210 ha         1 V5T       0.110000
     20 H5          15.7040   -18.4400     1.6800 ha         1 V5T       0.110000
     21 H6          17.9680   -19.3930     1.8640 ha         1 V5T       0.135000
     22 H7          19.0120   -16.1570     6.0190 hn         1 V5T       0.352000
     23 H8          21.0270   -17.5190     5.6040 h4         1 V5T       0.214000
     24 H9          19.8990   -21.4630     0.3190 hn         1 V5T       0.490000
     25 H10         21.3950   -22.2900     0.2390 hn         1 V5T       0.490000
     26 H3          16.4390   -15.8160     4.9980 ha         1 V5T       0.112000
@<TRIPOS>BOND
     1     1     2 ar  
     2     1     5 ar  
     3     1    14 1   
     4     2     3 ar  
     5     2    17 1   
     6     3     4 ar  
     7     3    18 1   
     8     4    15 ar  
     9     5    15 ar  
    10     6     7 ar  
    11     6    11 ar  
    12     6    26 1   
    13     7     8 ar  
    14     7    19 1   
    15     8     9 ar  
    16     8    20 1   
    17     9    10 ar  
    18     9    21 1   
    19    10    11 ar  
    20    10    14 1   
    21    11    12 1   
    22    12    13 1   
    23    12    22 1   
    24    13    14 2   
    25    13    23 1   
    26    15    16 1   
    27    16    24 1   
    28    16    25 1   
@<TRIPOS>SUBSTRUCTURE
     1 V5T         1 TEMP              0 ****  ****    0 ROOT
