@<TRIPOS>MOLECULE
V5T
   26    28     1     0     0
SMALL
No Charge or Current Charge


@<TRIPOS>ATOM
      1 C4          20.7700   -19.4140     3.3810 ca         1 V5T       0.276800
      2 C5          22.0740   -19.6110     3.8840 ca         1 V5T      -0.291000
      3 C6          22.8860   -20.5740     3.2650 ca         1 V5T       0.149900
      4 N1          22.4450   -21.2950     2.2190 nb         1 V5T      -0.252000
      5 N3          20.3380   -20.1430     2.3300 nb         1 V5T      -0.260000
      6 CAD         16.7660   -16.5840     4.3110 ca         1 V5T      -0.129000
      7 CAC         15.9080   -17.0780     3.3070 ca         1 V5T      -0.091000
      8 CAB         16.3500   -18.0980     2.4330 ca         1 V5T      -0.142000
      9 CAA         17.6510   -18.6330     2.5530 ca         1 V5T      -0.045000
     10 CAF         18.4880   -18.1210     3.5630 ca         1 V5T      -0.055800
     11 CAE         18.0510   -17.1320     4.4060 ca         1 V5T      -0.064200
     12 NAG         19.0510   -16.8070     5.3030 na         1 V5T      -0.212700
     13 CAH         20.1940   -17.5930     5.0630 cc         1 V5T      -0.123100
     14 CAI         19.8570   -18.4110     3.9860 cd         1 V5T      -0.233000
     15 C2          21.1950   -21.0350     1.8160 ca         1 V5T       0.378900
     16 NAP         20.7450   -21.7570     0.7590 nv         1 V5T      -1.060900
     17 H1          22.4550   -19.0440     4.7260 ha         1 V5T       0.125000
     18 H2          23.9010   -20.7710     3.6090 h4         1 V5T       0.016100
     19 H4          14.9030   -16.6740     3.2060 ha         1 V5T       0.110000
     20 H5          15.6810   -18.4750     1.6620 ha         1 V5T       0.110000
     21 H6          17.9720   -19.4160     1.8740 ha         1 V5T       0.135000
     22 H7          18.9690   -16.1020     6.0290 hn         1 V5T       0.352000
     23 H8          21.1030   -17.5040     5.6520 h4         1 V5T       0.214000
     24 H9          19.9010   -21.4480     0.2840 hn         1 V5T       0.490000
     25 H10         21.4170   -22.2840     0.2060 hn         1 V5T       0.490000
     26 H3          16.4370   -15.8000     4.9890 ha         1 V5T       0.112000
@<TRIPOS>BOND
     1     1     2 ar  
     2     1     5 ar  
     3     1    14 1   
     4     2     3 ar  
     5     2    17 1   
     6     3     4 ar  
     7     3    18 1   
     8     4    15 ar  
     9     5    15 ar  
    10     6     7 ar  
    11     6    11 ar  
    12     6    26 1   
    13     7     8 ar  
    14     7    19 1   
    15     8     9 ar  
    16     8    20 1   
    17     9    10 ar  
    18     9    21 1   
    19    10    11 ar  
    20    10    14 1   
    21    11    12 1   
    22    12    13 1   
    23    12    22 1   
    24    13    14 2   
    25    13    23 1   
    26    15    16 1   
    27    16    24 1   
    28    16    25 1   
@<TRIPOS>SUBSTRUCTURE
     1 V5T         1 TEMP              0 ****  ****    0 ROOT
