@<TRIPOS>MOLECULE
V5U
   59    62     1     0     0
SMALL
No Charge or Current Charge


@<TRIPOS>ATOM
      1 C1          27.5780    -3.2320    10.7460 ca         1 V5U      -0.187000
      2 C2          28.0030    -1.9230    10.4980 ca         1 V5U       0.327900
      3 C3          30.0310    -2.3090    11.5470 ca         1 V5U       0.334900
      4 O1          26.6900    -8.5420     9.9140 os         1 V5U      -0.460000
      5 O2          30.8010    -8.6170    11.5710 os         1 V5U      -0.386100
      6 O3          32.1140    -3.1800    13.5430 o          1 V5U      -0.624100
      7 C11         27.0720    -8.4340     8.5300 c3         1 V5U       0.146900
      8 C12         31.7140    -4.3130    13.2770 c          1 V5U       0.533600
      9 C13         32.4000    -5.5740    13.7730 ca         1 V5U       0.148500
     10 C14         33.5970    -5.4900    14.5540 ca         1 V5U       0.649900
     11 C15         33.6870    -7.7580    14.7360 ca         1 V5U       0.432900
     12 C16         32.5060    -7.9050    13.9370 cp         1 V5U       0.147000
     13 C17         31.9720    -9.2880    13.6170 cp         1 V5U       0.344000
     14 C18         31.1560    -9.5950    12.4750 ca         1 V5U       0.055100
     15 C19         30.7120   -10.9100    12.2620 ca         1 V5U      -0.077000
     16 C20         31.0950   -11.8980    13.1830 ca         1 V5U      -0.156000
     17 C21         31.9040   -11.5410    14.2710 ca         1 V5U       0.361900
     18 C22         31.5380    -8.4530    10.3490 c3         1 V5U       0.514000
     19 C10         27.2870    -6.2260    10.6620 c6         1 V5U       0.168800
     20 C4          29.6880    -3.6460    11.8480 ca         1 V5U      -0.085000
     21 C5          28.4260    -4.1140    11.4290 ca         1 V5U       0.256000
     22 C6          27.6310    -5.7960    13.0970 c6         1 V5U       0.188800
     23 C7          27.8300    -7.3060    13.3560 c6         1 V5U      -0.080400
     24 C8          27.0340    -8.1420    12.3290 c6         1 V5U       0.164500
     25 C9          27.4500    -7.7620    10.8750 c6         1 V5U       0.120300
     26 F1          32.8530    -8.2390    10.5790 f          1 V5U      -0.105667
     27 F2          31.4360    -9.5380     9.5490 f          1 V5U      -0.105667
     28 F3          31.0770    -7.3940     9.6470 f          1 V5U      -0.105667
     29 N1          29.2100    -1.4590    10.8860 nb         1 V5U      -0.658000
     30 N2          28.0130    -5.4380    11.7040 nh         1 V5U      -0.792400
     31 N4          30.5750    -4.5400    12.5170 ns         1 V5U      -0.117000
     32 N5          34.2400    -6.5510    15.0470 nb         1 V5U      -0.753000
     33 N6          31.8520    -6.7970    13.4730 nb         1 V5U      -0.594000
     34 N7          32.3360   -10.2760    14.4810 nb         1 V5U      -0.674000
     35 N8          34.2670    -4.3820    14.9180 nv         1 V5U      -1.047900
     36 H1          26.5930    -3.5460    10.4170 ha         1 V5U       0.124000
     37 H2          27.3590    -1.2190     9.9730 h4         1 V5U       0.019100
     38 H3          31.0010    -1.8950    11.8130 h4         1 V5U       0.043100
     39 H111        26.4860    -9.1330     7.9190 h1         1 V5U       0.030033
     40 H113        26.8940    -7.4220     8.1470 h1         1 V5U       0.030033
     41 H112        28.1350    -8.6760     8.4000 h1         1 V5U       0.030033
     42 H15         34.2170    -8.6290    15.1180 h4         1 V5U       0.047100
     43 H19         30.0920   -11.1590    11.4040 ha         1 V5U       0.138000
     44 H20         30.7760   -12.9290    13.0580 ha         1 V5U       0.136000
     45 H21         32.2200   -12.2900    14.9970 h4         1 V5U       0.031100
     46 H102        26.2160    -5.9730    10.6780 h1         1 V5U       0.046200
     47 H101        27.6760    -5.9610     9.6690 h1         1 V5U       0.046200
     48 H61         28.2340    -5.2300    13.8220 h1         1 V5U       0.044700
     49 H62         26.5770    -5.5320    13.2750 h1         1 V5U       0.044700
     50 H71         28.8990    -7.5470    13.2980 hc         1 V5U       0.062200
     51 H72         27.5040    -7.5480    14.3760 hc         1 V5U       0.062200
     52 H8          25.9620    -7.9130    12.4450 h1         1 V5U       0.069700
     53 H9          28.5120    -8.0090    10.7440 h1         1 V5U       0.052700
     54 H4          26.8170   -10.0880    11.7770 hn         1 V5U       0.397000
     55 HN31        28.2080    -9.8070    12.5310 hn         1 V5U       0.397000
     56 H5          30.3230    -5.5180    12.4240 hn         1 V5U       0.204000
     57 HN81        34.8820    -4.4890    15.7150 hn         1 V5U       0.522500
     58 HN82        33.7770    -3.4950    14.8160 hn         1 V5U       0.522500
     59 N3          27.2070    -9.5940    12.5890 n8         1 V5U      -0.988200
@<TRIPOS>BOND
     1     1     2 ar  
     2     1    21 ar  
     3     1    36 1   
     4     2    29 ar  
     5     2    37 1   
     6     3    20 ar  
     7     3    29 ar  
     8     3    38 1   
     9     4     7 1   
    10     4    25 1   
    11     5    14 1   
    12     5    18 1   
    13     6     8 2   
    14     7    39 1   
    15     7    40 1   
    16     7    41 1   
    17     8     9 1   
    18     8    31 1   
    19     9    10 ar  
    20     9    33 ar  
    21    10    32 ar  
    22    10    35 1   
    23    11    12 ar  
    24    11    32 ar  
    25    11    42 1   
    26    12    13 1   
    27    12    33 ar  
    28    13    14 ar  
    29    13    34 ar  
    30    14    15 ar  
    31    15    16 ar  
    32    15    43 1   
    33    16    17 ar  
    34    16    44 1   
    35    17    34 ar  
    36    17    45 1   
    37    18    26 1   
    38    18    27 1   
    39    18    28 1   
    40    19    25 1   
    41    19    30 1   
    42    19    46 1   
    43    19    47 1   
    44    20    21 ar  
    45    20    31 1   
    46    21    30 1   
    47    22    23 1   
    48    22    30 1   
    49    22    48 1   
    50    22    49 1   
    51    23    24 1   
    52    23    50 1   
    53    23    51 1   
    54    24    25 1   
    55    24    52 1   
    56    24    59 1   
    57    25    53 1   
    58    31    56 1   
    59    35    57 1   
    60    35    58 1   
    61    54    59 1   
    62    55    59 1   
@<TRIPOS>SUBSTRUCTURE
     1 V5U         1 TEMP              0 ****  ****    0 ROOT
