@<TRIPOS>MOLECULE
V5U
   59    62     1     0     0
SMALL
abcg2


@<TRIPOS>ATOM
      1 C1          27.6990    -3.4580    10.5970 ca         1 V5U      -0.187000
      2 C2          28.1200    -2.1740    10.2890 ca         1 V5U       0.327900
      3 C3          30.1060    -2.4630    11.3600 ca         1 V5U       0.334900
      4 O1          26.5440    -8.5690    10.3600 os         1 V5U      -0.460000
      5 O2          31.1160    -8.2580    11.1340 os         1 V5U      -0.386100
      6 O3          31.9390    -3.2310    13.6160 o          1 V5U      -0.624100
      7 C11         27.0470    -8.8480     9.0780 c3         1 V5U       0.146900
      8 C12         31.6240    -4.3580    13.2610 c          1 V5U       0.533600
      9 C13         32.2870    -5.5790    13.8000 ca         1 V5U       0.148500
     10 C14         33.3300    -5.5340    14.7650 ca         1 V5U       0.649900
     11 C15         33.4040    -7.8200    14.7140 ca         1 V5U       0.432900
     12 C16         32.3760    -7.8700    13.7650 cp         1 V5U       0.147000
     13 C17         31.8440    -9.1490    13.2660 cp         1 V5U       0.344000
     14 C18         31.2380    -9.3140    12.0170 ca         1 V5U       0.055100
     15 C19         30.7010   -10.5380    11.6630 ca         1 V5U      -0.077000
     16 C20         30.8160   -11.5930    12.5510 ca         1 V5U      -0.156000
     17 C21         31.4770   -11.3660    13.7480 ca         1 V5U       0.361900
     18 C22         32.0870    -8.0740    10.2280 c3         1 V5U       0.514000
     19 C10         27.2880    -6.3190    10.8690 c6         1 V5U       0.168800
     20 C4          29.7840    -3.7660    11.7220 ca         1 V5U      -0.085000
     21 C5          28.5280    -4.2810    11.3480 ca         1 V5U       0.256000
     22 C6          27.8800    -5.7650    13.1400 c6         1 V5U       0.188800
     23 C7          27.9570    -7.2310    13.5240 c6         1 V5U      -0.080400
     24 C8          27.0760    -8.1010    12.6360 c6         1 V5U       0.164500
     25 C9          27.4100    -7.8140    11.1720 c6         1 V5U       0.120300
     26 F1          33.2910    -7.9430    10.7840 f          1 V5U      -0.105667
     27 F2          32.1750    -9.0790     9.3550 f          1 V5U      -0.105667
     28 F3          31.8030    -6.9680     9.5610 f          1 V5U      -0.105667
     29 N1          29.2890    -1.6780    10.6680 nb         1 V5U      -0.658000
     30 N2          28.2060    -5.5890    11.7230 nh         1 V5U      -0.792400
     31 N4          30.6570    -4.6380    12.3630 ns         1 V5U      -0.117000
     32 N5          33.8650    -6.6890    15.1930 nb         1 V5U      -0.753000
     33 N6          31.8520    -6.7340    13.3450 nb         1 V5U      -0.594000
     34 N7          31.9620   -10.1850    14.0940 nb         1 V5U      -0.674000
     35 N8          33.8190    -4.4090    15.2820 nv         1 V5U      -1.047900
     36 H1          26.7260    -3.7970    10.2670 ha         1 V5U       0.124000
     37 H2          27.4750    -1.5190     9.7130 h4         1 V5U       0.019100
     38 H3          31.0680    -2.0450    11.6220 h4         1 V5U       0.043100
     39 H111        26.3230    -9.4810     8.5670 h1         1 V5U       0.030033
     40 H113        27.1960    -7.9480     8.4730 h1         1 V5U       0.030033
     41 H112        28.0030    -9.3840     9.1240 h1         1 V5U       0.030033
     42 H15         33.8610    -8.7310    15.0820 h4         1 V5U       0.047100
     43 H19         30.1960   -10.6570    10.7130 ha         1 V5U       0.138000
     44 H20         30.4110   -12.5670    12.3170 ha         1 V5U       0.136000
     45 H21         31.6100   -12.1690    14.4640 h4         1 V5U       0.031100
     46 H102        26.2430    -6.0070    11.0180 h1         1 V5U       0.046200
     47 H101        27.5450    -6.1240     9.8260 h1         1 V5U       0.046200
     48 H61         28.5680    -5.1840    13.7540 h1         1 V5U       0.044700
     49 H62         26.8700    -5.3780    13.3400 h1         1 V5U       0.044700
     50 H71         28.9960    -7.5690    13.4500 hc         1 V5U       0.062200
     51 H72         27.6560    -7.3480    14.5670 hc         1 V5U       0.062200
     52 H8          26.0310    -7.8060    12.7990 h1         1 V5U       0.069700
     53 H9          28.4550    -8.1160    11.0000 h1         1 V5U       0.052700
     54 H4          26.6510   -10.0720    12.4070 hn         1 V5U       0.397000
     55 HN31        28.1680    -9.7920    12.8920 hn         1 V5U       0.397000
     56 H5          30.4660    -5.6250    12.2160 hn         1 V5U       0.204000
     57 HN81        34.5610    -4.4600    15.9600 hn         1 V5U       0.522500
     58 HN82        33.4570    -3.5140    15.0000 hn         1 V5U       0.522500
     59 N3          27.2070    -9.4940    13.0240 n8         1 V5U      -0.988200
@<TRIPOS>BOND
     1     1     2 ar  
     2     1    21 ar  
     3     1    36 1   
     4     2    29 ar  
     5     2    37 1   
     6     3    20 ar  
     7     3    29 ar  
     8     3    38 1   
     9     4     7 1   
    10     4    25 1   
    11     5    14 1   
    12     5    18 1   
    13     6     8 2   
    14     7    39 1   
    15     7    40 1   
    16     7    41 1   
    17     8     9 1   
    18     8    31 1   
    19     9    10 ar  
    20     9    33 ar  
    21    10    32 ar  
    22    10    35 1   
    23    11    12 ar  
    24    11    32 ar  
    25    11    42 1   
    26    12    13 1   
    27    12    33 ar  
    28    13    14 ar  
    29    13    34 ar  
    30    14    15 ar  
    31    15    16 ar  
    32    15    43 1   
    33    16    17 ar  
    34    16    44 1   
    35    17    34 ar  
    36    17    45 1   
    37    18    26 1   
    38    18    27 1   
    39    18    28 1   
    40    19    25 1   
    41    19    30 1   
    42    19    46 1   
    43    19    47 1   
    44    20    21 ar  
    45    20    31 1   
    46    21    30 1   
    47    22    23 1   
    48    22    30 1   
    49    22    48 1   
    50    22    49 1   
    51    23    24 1   
    52    23    50 1   
    53    23    51 1   
    54    24    25 1   
    55    24    52 1   
    56    24    59 1   
    57    25    53 1   
    58    31    56 1   
    59    35    57 1   
    60    35    58 1   
    61    54    59 1   
    62    55    59 1   
@<TRIPOS>SUBSTRUCTURE
     1 V5U         1 TEMP              0 ****  ****    0 ROOT
