@<TRIPOS>MOLECULE
V5V
   74    81     1     0     0
SMALL
abcg2


@<TRIPOS>ATOM
      1 N1         -14.8490    82.0670   145.4910 nc         1 V5V      -0.536100
      2 N3         -15.9100    84.9920   147.5370 nb         1 V5V      -0.302000
      3 C4         -14.9660    76.8310   146.7240 c3         1 V5V       0.215100
      4 C5         -15.6210    82.3560   147.6180 ca         1 V5V       0.126500
      5 C6         -15.2960    82.9980   146.4190 ca         1 V5V      -0.080600
      6 C7         -14.9150    80.9130   146.1030 cd         1 V5V       0.417200
      7 C8         -16.1740    84.2490   148.6100 ca         1 V5V       0.185400
      8 C10        -16.1990    77.4050   141.6240 c5         1 V5V       0.127300
      9 C13        -16.3350    76.9880   143.0810 c5         1 V5V       0.147800
     10 C15        -17.6520    80.0840   140.6850 ca         1 V5V       0.126500
     11 C17        -18.6340    79.5840   142.5970 cc         1 V5V       0.417200
     12 C20        -18.4480    84.0200   142.5480 c3         1 V5V       0.261500
     13 C21        -14.8760    84.7930   144.0090 c3         1 V5V       0.261500
     14 C22        -16.0180    84.3710   143.1240 c2         1 V5V      -0.237200
     15 C          -17.1640    79.5000   148.1700 c5         1 V5V       0.127300
     16 C3         -17.0180    78.3070   147.2300 c5         1 V5V       0.147800
     17 O1         -18.0830    77.3680   147.3370 os         1 V5V      -0.548400
     18 P          -19.3230    77.3400   146.3280 p5         1 V5V       1.111700
     19 O3         -20.2710    76.3030   146.7580 o          1 V5V      -0.471000
     20 S1         -20.0900    79.2750   146.1530 sh         1 V5V      -0.473700
     21 O6         -18.6890    77.2010   144.8810 os         1 V5V      -0.596900
     22 C14        -18.3090    75.9120   144.3400 c3         1 V5V       0.215100
     23 C12        -17.5840    76.1140   143.0370 c5         1 V5V       0.156800
     24 F          -15.7180    76.3260   140.8830 f          1 V5V      -0.234000
     25 O5         -15.2120    76.2640   143.5770 os         1 V5V      -0.548400
     26 P1         -14.0070    77.0840   144.2350 p5         1 V5V       1.111700
     27 O7         -13.4720    78.1950   143.4350 o          1 V5V      -0.471000
     28 S          -12.7110    75.5030   144.6340 sh         1 V5V      -0.473700
     29 O2         -14.5860    77.6480   145.6010 os         1 V5V      -0.596900
     30 C2         -15.7070    77.6890   147.7150 c5         1 V5V       0.156800
     31 O          -14.9020    78.8210   148.0800 os         1 V5V      -0.431000
     32 O4         -18.4280    76.7880   142.0840 os         1 V5V      -0.431000
     33 C11        -17.6630    77.6410   141.2520 c5         1 V5V       0.302300
     34 N5         -18.0300    79.0330   141.4890 na         1 V5V      -0.326300
     35 N6         -18.6740    80.8910   142.5560 nd         1 V5V      -0.536100
     36 C16        -18.0560    81.2390   141.3620 ca         1 V5V      -0.080600
     37 C19        -17.7610    82.4650   140.7230 ca         1 V5V       0.446900
     38 N8         -17.1410    82.4100   139.5210 nb         1 V5V      -0.302000
     39 C18        -16.8180    81.2300   138.9940 ca         1 V5V       0.185400
     40 N7         -17.0230    80.0170   139.5090 nb         1 V5V      -0.230500
     41 N9         -18.0570    83.6900   141.1910 nu         1 V5V      -0.910100
     42 C23        -17.3030    84.4000   143.4500 c2         1 V5V      -0.237200
     43 N4         -15.2580    85.2030   145.3460 nu         1 V5V      -0.910100
     44 C9         -15.4760    84.4000   146.3990 ca         1 V5V       0.446900
     45 N2         -16.0730    82.9260   148.7400 nb         1 V5V      -0.230500
     46 N          -15.3740    81.0200   147.4010 na         1 V5V      -0.326300
     47 C1         -15.7100    79.9540   148.3330 c5         1 V5V       0.302300
     48 H1         -15.6120    76.0130   146.4020 h1         1 V5V       0.069450
     49 H2         -14.0640    76.4210   147.1780 h1         1 V5V       0.069450
     50 H3         -14.6290    79.9610   145.6900 h5         1 V5V       0.083800
     51 H4         -16.5190    84.7910   149.4840 h5         1 V5V       0.049600
     52 H5         -15.5510    78.2570   141.4460 h1         1 V5V       0.123700
     53 H6         -16.5240    77.8730   143.6910 h1         1 V5V       0.078200
     54 H7         -19.0280    78.9640   143.3810 h5         1 V5V       0.083800
     55 H8         -19.1560    84.8510   142.5030 h1         1 V5V       0.077450
     56 H9         -18.9870    83.1740   142.9730 h1         1 V5V       0.077450
     57 H10        -14.1420    83.9890   144.0680 h1         1 V5V       0.077450
     58 H11        -14.3700    85.6450   143.5480 h1         1 V5V       0.077450
     59 H12        -15.7140    84.0390   142.1360 ha         1 V5V       0.183500
     60 H13        -17.8260    80.2850   147.8180 h1         1 V5V       0.123700
     61 H14        -16.9160    78.6610   146.2030 h1         1 V5V       0.078200
     62 H15        -20.9990    79.0490   147.1180 hs         1 V5V       0.330800
     63 H16        -19.2100    75.3210   144.1840 h1         1 V5V       0.069450
     64 H17        -17.6490    75.3910   145.0360 h1         1 V5V       0.069450
     65 H18        -17.3180    75.1220   142.6600 h1         1 V5V       0.100700
     66 H19        -11.6310    76.2890   144.4690 hs         1 V5V       0.330800
     67 H20        -15.9120    77.0730   148.5960 h1         1 V5V       0.100700
     68 H21        -17.8460    77.4130   140.2030 h2         1 V5V       0.130700
     69 H22        -16.3190    81.2650   138.0310 h5         1 V5V       0.049600
     70 H23        -17.7160    84.4460   140.6140 hn         1 V5V       0.502000
     71 H24        -17.6010    84.7280   144.4410 ha         1 V5V       0.183500
     72 H25        -15.4030    86.1860   145.5190 hn         1 V5V       0.502000
     73 H26        -15.5450    80.3300   149.3430 h2         1 V5V       0.130700
     74 F1         -17.6350    79.0530   149.4050 f          1 V5V      -0.234000
@<TRIPOS>BOND
     1     1     5 1   
     2     1     6 2   
     3     2     7 ar  
     4     2    44 ar  
     5     3    29 1   
     6     3    30 1   
     7     3    48 1   
     8     3    49 1   
     9     4     5 ar  
    10     4    45 ar  
    11     4    46 1   
    12     5    44 ar  
    13     6    46 1   
    14     6    50 1   
    15     7    45 ar  
    16     7    51 1   
    17     8     9 1   
    18     8    24 1   
    19     8    33 1   
    20     8    52 1   
    21     9    23 1   
    22     9    25 1   
    23     9    53 1   
    24    10    34 1   
    25    10    36 ar  
    26    10    40 ar  
    27    11    34 1   
    28    11    35 2   
    29    11    54 1   
    30    12    41 1   
    31    12    42 1   
    32    12    55 1   
    33    12    56 1   
    34    13    14 1   
    35    13    43 1   
    36    13    57 1   
    37    13    58 1   
    38    14    42 2   
    39    14    59 1   
    40    15    16 1   
    41    15    47 1   
    42    15    60 1   
    43    15    74 1   
    44    16    17 1   
    45    16    30 1   
    46    16    61 1   
    47    17    18 1   
    48    18    19 2   
    49    18    20 1   
    50    18    21 1   
    51    20    62 1   
    52    21    22 1   
    53    22    23 1   
    54    22    63 1   
    55    22    64 1   
    56    23    32 1   
    57    23    65 1   
    58    25    26 1   
    59    26    27 2   
    60    26    28 1   
    61    26    29 1   
    62    28    66 1   
    63    30    31 1   
    64    30    67 1   
    65    31    47 1   
    66    32    33 1   
    67    33    34 1   
    68    33    68 1   
    69    35    36 1   
    70    36    37 ar  
    71    37    38 ar  
    72    37    41 1   
    73    38    39 ar  
    74    39    40 ar  
    75    39    69 1   
    76    41    70 1   
    77    42    71 1   
    78    43    44 1   
    79    43    72 1   
    80    46    47 1   
    81    47    73 1   
@<TRIPOS>SUBSTRUCTURE
     1 V5V         1 TEMP              0 ****  ****    0 ROOT
