@<TRIPOS>MOLECULE
V5V
   74    81     1     0     0
SMALL
No Charge or Current Charge


@<TRIPOS>ATOM
      1 N1         -14.2620    81.8580   145.9250 nc         1 V5V      -0.536100
      2 N3         -16.4230    84.6880   147.0540 nb         1 V5V      -0.302000
      3 C4         -14.7030    76.7220   146.8450 c3         1 V5V       0.215100
      4 C5         -15.7680    82.0800   147.6370 ca         1 V5V       0.126500
      5 C6         -15.1770    82.6940   146.5590 ca         1 V5V      -0.080600
      6 C7         -14.3360    80.7360   146.6640 cd         1 V5V       0.417200
      7 C8         -16.9410    83.9910   148.0900 ca         1 V5V       0.185400
      8 C10        -15.9470    77.6830   141.8520 c5         1 V5V       0.127300
      9 C13        -16.2910    77.1850   143.2850 c5         1 V5V       0.147800
     10 C15        -17.7490    80.3850   140.5750 ca         1 V5V       0.126500
     11 C17        -18.2820    79.9430   142.6890 cc         1 V5V       0.417200
     12 C20        -18.5580    84.4510   142.3750 c3         1 V5V       0.261500
     13 C21        -14.8800    84.2880   143.8420 c3         1 V5V       0.261500
     14 C22        -16.2470    83.9250   143.3140 c2         1 V5V      -0.237200
     15 C          -17.0970    79.2110   148.4710 c5         1 V5V       0.127300
     16 C3         -16.8520    78.1760   147.3280 c5         1 V5V       0.147800
     17 O1         -17.8910    77.1560   147.3060 os         1 V5V      -0.548400
     18 P          -19.2430    77.3400   146.4270 p5         1 V5V       1.111700
     19 O3         -20.3330    76.3730   146.7190 o          1 V5V      -0.471000
     20 S1         -19.7950    79.3470   146.6190 sh         1 V5V      -0.473700
     21 O6         -18.7110    77.3170   144.9080 os         1 V5V      -0.596900
     22 C14        -18.4470    76.0690   144.2440 c3         1 V5V       0.215100
     23 C12        -17.5670    76.3520   143.0000 c5         1 V5V       0.156800
     24 F          -15.3430    76.6770   141.0820 f          1 V5V      -0.234000
     25 O5         -15.2640    76.2880   143.7790 os         1 V5V      -0.548400
     26 P1         -13.9030    76.9640   144.3220 p5         1 V5V       1.111700
     27 O7         -13.2360    77.9150   143.3950 o          1 V5V      -0.471000
     28 S          -12.7570    75.2970   144.8580 sh         1 V5V      -0.473700
     29 O2         -14.3600    77.5810   145.7400 os         1 V5V      -0.596900
     30 C2         -15.5480    77.5190   147.8680 c5         1 V5V       0.156800
     31 O          -14.7820    78.6040   148.4610 os         1 V5V      -0.431000
     32 O4         -18.2910    77.1060   141.9870 os         1 V5V      -0.431000
     33 C11        -17.3710    78.0010   141.3110 c5         1 V5V       0.302300
     34 N5         -17.8360    79.3770   141.4910 na         1 V5V      -0.326300
     35 N6         -18.5020    81.2610   142.5540 nd         1 V5V      -0.536100
     36 C16        -18.1470    81.5280   141.2270 ca         1 V5V      -0.080600
     37 C19        -18.1440    82.7480   140.4970 ca         1 V5V       0.446900
     38 N8         -17.7750    82.7630   139.2030 nb         1 V5V      -0.302000
     39 C18        -17.3970    81.5820   138.6630 ca         1 V5V       0.185400
     40 N7         -17.3610    80.3820   139.2860 nb         1 V5V      -0.230500
     41 N9         -18.5490    83.9910   140.9810 nu         1 V5V      -0.910100
     42 C23        -17.1480    84.7870   142.8060 c2         1 V5V      -0.237200
     43 N4         -15.0490    84.7870   145.2110 nu         1 V5V      -0.910100
     44 C9         -15.5460    84.0350   146.2720 ca         1 V5V       0.446900
     45 N2         -16.6620    82.7110   148.4220 nb         1 V5V      -0.230500
     46 N          -15.2690    80.8070   147.7150 na         1 V5V      -0.326300
     47 C1         -15.6480    79.7490   148.6550 c5         1 V5V       0.302300
     48 H1         -15.2890    75.8570   146.5070 h1         1 V5V       0.069450
     49 H2         -13.8010    76.3510   147.3490 h1         1 V5V       0.069450
     50 H3         -13.7470    79.8430   146.4940 h5         1 V5V       0.083800
     51 H4         -17.6580    84.5140   148.7220 h5         1 V5V       0.049600
     52 H5         -15.2970    78.5670   141.8440 h1         1 V5V       0.123700
     53 H6         -16.4680    78.0100   143.9890 h1         1 V5V       0.078200
     54 H7         -18.4280    79.3650   143.5920 h5         1 V5V       0.083800
     55 H8         -19.1750    85.3590   142.4600 h1         1 V5V       0.077450
     56 H9         -19.0060    83.7080   143.0480 h1         1 V5V       0.077450
     57 H10        -14.2150    83.4130   143.8130 h1         1 V5V       0.077450
     58 H11        -14.4290    85.0620   143.2030 h1         1 V5V       0.077450
     59 H12        -16.4880    82.8680   143.4220 ha         1 V5V       0.183500
     60 H13        -17.7840    80.0210   148.2060 h1         1 V5V       0.123700
     61 H14        -16.7200    78.6420   146.3410 h1         1 V5V       0.078200
     62 H15        -21.0050    78.8760   147.0010 hs         1 V5V       0.330800
     63 H16        -19.3800    75.5860   143.9260 h1         1 V5V       0.069450
     64 H17        -17.9080    75.3780   144.9060 h1         1 V5V       0.069450
     65 H18        -17.2870    75.3850   142.5590 h1         1 V5V       0.100700
     66 H19        -11.7970    75.8230   144.0610 hs         1 V5V       0.330800
     67 H20        -15.8080    76.8230   148.6780 h1         1 V5V       0.100700
     68 H21        -17.4030    77.8170   140.2290 h2         1 V5V       0.130700
     69 H22        -17.0920    81.5970   137.6180 h5         1 V5V       0.049600
     70 H23        -18.5120    84.7240   140.2730 hn         1 V5V       0.502000
     71 H24        -16.9080    85.8480   142.7230 ha         1 V5V       0.183500
     72 H25        -15.3450    85.7600   145.2700 hn         1 V5V       0.502000
     73 H26        -15.5130    80.1710   149.6600 h2         1 V5V       0.130700
     74 F1         -17.5600    78.5990   149.6470 f          1 V5V      -0.234000
@<TRIPOS>BOND
     1     1     5 1   
     2     1     6 2   
     3     2     7 ar  
     4     2    44 ar  
     5     3    29 1   
     6     3    30 1   
     7     3    48 1   
     8     3    49 1   
     9     4     5 ar  
    10     4    45 ar  
    11     4    46 1   
    12     5    44 ar  
    13     6    46 1   
    14     6    50 1   
    15     7    45 ar  
    16     7    51 1   
    17     8     9 1   
    18     8    24 1   
    19     8    33 1   
    20     8    52 1   
    21     9    23 1   
    22     9    25 1   
    23     9    53 1   
    24    10    34 1   
    25    10    36 ar  
    26    10    40 ar  
    27    11    34 1   
    28    11    35 2   
    29    11    54 1   
    30    12    41 1   
    31    12    42 1   
    32    12    55 1   
    33    12    56 1   
    34    13    14 1   
    35    13    43 1   
    36    13    57 1   
    37    13    58 1   
    38    14    42 2   
    39    14    59 1   
    40    15    16 1   
    41    15    47 1   
    42    15    60 1   
    43    15    74 1   
    44    16    17 1   
    45    16    30 1   
    46    16    61 1   
    47    17    18 1   
    48    18    19 2   
    49    18    20 1   
    50    18    21 1   
    51    20    62 1   
    52    21    22 1   
    53    22    23 1   
    54    22    63 1   
    55    22    64 1   
    56    23    32 1   
    57    23    65 1   
    58    25    26 1   
    59    26    27 2   
    60    26    28 1   
    61    26    29 1   
    62    28    66 1   
    63    30    31 1   
    64    30    67 1   
    65    31    47 1   
    66    32    33 1   
    67    33    34 1   
    68    33    68 1   
    69    35    36 1   
    70    36    37 ar  
    71    37    38 ar  
    72    37    41 1   
    73    38    39 ar  
    74    39    40 ar  
    75    39    69 1   
    76    41    70 1   
    77    42    71 1   
    78    43    44 1   
    79    43    72 1   
    80    46    47 1   
    81    47    73 1   
@<TRIPOS>SUBSTRUCTURE
     1 V5V         1 TEMP              0 ****  ****    0 ROOT
