@<TRIPOS>MOLECULE
V5W
   62    65     1     0     0
SMALL
abcg2


@<TRIPOS>ATOM
      1 C            8.9340     0.4130    13.5240 ca         1 V5W       0.121000
      2 O            5.1320   -11.9160    19.1620 os         1 V5W      -0.415100
      3 CL1          9.6910    -1.5850     9.5890 cl         1 V5W      -0.202000
      4 C20          9.4270    -0.8290    11.1300 ca         1 V5W       0.127000
      5 C21          8.6160     0.2960    11.1670 ca         1 V5W      -0.098000
      6 C22          8.3610     0.9270    12.3720 ca         1 V5W      -0.097000
      7 CL           8.6380     1.1900    15.0440 cl         1 V5W      -0.194000
      8 C2          10.0040    -1.3550    12.2810 ca         1 V5W      -0.070300
      9 C1           9.7440    -0.7080    13.4850 ca         1 V5W      -0.088000
     10 C3          10.9120    -2.5640    12.2540 c3         1 V5W       0.290100
     11 N           10.8900    -3.3330    13.4660 nu         1 V5W      -0.929100
     12 C4           9.8450    -4.1080    13.8110 ca         1 V5W       0.433900
     13 N5           9.9630    -4.8030    14.9530 nb         1 V5W      -0.289000
     14 C19          8.9350    -5.5830    15.2330 ca         1 V5W       0.202900
     15 C11          7.7940    -5.7200    14.4540 ca         1 V5W      -0.405600
     16 C5           7.7560    -4.8770    13.2990 ca         1 V5W       0.468900
     17 N2           6.7080    -4.8420    12.4750 nu         1 V5W      -0.900100
     18 C6           6.5910    -3.9520    11.3450 c5         1 V5W       0.230500
     19 C10          5.5600    -4.4400    10.3300 c5         1 V5W      -0.095900
     20 C9           5.2860    -3.2070     9.4580 c5         1 V5W      -0.077400
     21 C8           5.6920    -1.9800    10.3130 c5         1 V5W      -0.077400
     22 C7           6.0980    -2.5420    11.6770 c5         1 V5W      -0.095900
     23 N1           8.7980    -4.1000    13.0010 nb         1 V5W      -0.341000
     24 C12          6.6790    -6.6190    14.8090 c          1 V5W       0.648700
     25 O2           5.5560    -6.4910    14.3130 o          1 V5W      -0.650100
     26 N3           6.9360    -7.5850    15.7090 ns         1 V5W      -0.498900
     27 C13          5.9360    -8.5210    16.1710 c3         1 V5W       0.105000
     28 C14          5.7500    -9.7170    15.2420 c3         1 V5W      -0.120400
     29 C15          4.7580   -10.7290    15.8000 c3         1 V5W       0.124000
     30 N4           5.1910   -11.3020    17.0510 n          1 V5W      -0.453800
     31 C18          6.2320   -12.2970    17.1330 c5         1 V5W       0.063000
     32 C17          6.3540   -12.4500    18.6480 c5         1 V5W       0.142600
     33 C16          4.5220   -11.1810    18.2150 c          1 V5W       0.695100
     34 O1           3.5270   -10.5360    18.4470 o          1 V5W      -0.530000
     35 H1           8.1750     0.6790    10.2570 ha         1 V5W       0.133000
     36 H2           7.7270     1.8020    12.4050 ha         1 V5W       0.135000
     37 H3          10.1770    -1.0940    14.3990 ha         1 V5W       0.136000
     38 H4          10.6550    -3.2010    11.4080 h1         1 V5W       0.069200
     39 H5          11.9400    -2.2330    12.0930 h1         1 V5W       0.069200
     40 H6          11.6840    -3.3160    14.0830 hn         1 V5W       0.514000
     41 H7           9.0210    -6.1290    16.1670 h4         1 V5W       0.010100
     42 H8           5.8920    -5.3570    12.7810 hn         1 V5W       0.534000
     43 H9           7.5670    -3.8780    10.8580 h1         1 V5W       0.081700
     44 H10          4.6510    -4.7430    10.8590 hc         1 V5W       0.051950
     45 H11          5.9070    -5.3010     9.7580 hc         1 V5W       0.051950
     46 H12          5.8790    -3.2450     8.5430 hc         1 V5W       0.042950
     47 H13          4.2410    -3.1640     9.1500 hc         1 V5W       0.042950
     48 H14          6.5380    -1.4640     9.8540 hc         1 V5W       0.042950
     49 H15          4.8890    -1.2470    10.3980 hc         1 V5W       0.042950
     50 H16          5.2300    -2.6180    12.3390 hc         1 V5W       0.051950
     51 H17          6.8510    -1.9380    12.1850 hc         1 V5W       0.051950
     52 H18          7.8880    -7.7790    15.9710 hn         1 V5W       0.310500
     53 H19          4.9880    -7.9990    16.3040 h1         1 V5W       0.062700
     54 H20          6.2520    -8.8610    17.1580 h1         1 V5W       0.062700
     55 H21          5.3840    -9.3780    14.2710 hc         1 V5W       0.053700
     56 H22          6.7160   -10.1960    15.0620 hc         1 V5W       0.053700
     57 H23          3.7890   -10.2550    15.9620 h1         1 V5W       0.061700
     58 H24          4.6030   -11.5330    15.0750 h1         1 V5W       0.061700
     59 H25          5.9300   -13.2240    16.6350 h1         1 V5W       0.056200
     60 H26          7.1650   -11.9570    16.6830 h1         1 V5W       0.056200
     61 H27          6.4540   -13.4850    18.9680 h1         1 V5W       0.066700
     62 H28          7.1890   -11.8720    19.0470 h1         1 V5W       0.066700
@<TRIPOS>BOND
     1     1     6 ar  
     2     1     7 1   
     3     1     9 ar  
     4     2    32 1   
     5     2    33 1   
     6     3     4 1   
     7     4     5 ar  
     8     4     8 ar  
     9     5     6 ar  
    10     5    35 1   
    11     6    36 1   
    12     8     9 ar  
    13     8    10 1   
    14     9    37 1   
    15    10    11 1   
    16    10    38 1   
    17    10    39 1   
    18    11    12 1   
    19    11    40 1   
    20    12    13 ar  
    21    12    23 ar  
    22    13    14 ar  
    23    14    15 ar  
    24    14    41 1   
    25    15    16 ar  
    26    15    24 1   
    27    16    17 1   
    28    16    23 ar  
    29    17    18 1   
    30    17    42 1   
    31    18    19 1   
    32    18    22 1   
    33    18    43 1   
    34    19    20 1   
    35    19    44 1   
    36    19    45 1   
    37    20    21 1   
    38    20    46 1   
    39    20    47 1   
    40    21    22 1   
    41    21    48 1   
    42    21    49 1   
    43    22    50 1   
    44    22    51 1   
    45    24    25 2   
    46    24    26 1   
    47    26    27 1   
    48    26    52 1   
    49    27    28 1   
    50    27    53 1   
    51    27    54 1   
    52    28    29 1   
    53    28    55 1   
    54    28    56 1   
    55    29    30 1   
    56    29    57 1   
    57    29    58 1   
    58    30    31 1   
    59    30    33 1   
    60    31    32 1   
    61    31    59 1   
    62    31    60 1   
    63    32    61 1   
    64    32    62 1   
    65    33    34 2   
@<TRIPOS>SUBSTRUCTURE
     1 V5W         1 TEMP              0 ****  ****    0 ROOT
