@<TRIPOS>MOLECULE
V5W
   62    65     1     0     0
SMALL
No Charge or Current Charge


@<TRIPOS>ATOM
      1 C            8.7130     0.0850    13.3190 ca         1 V5W       0.121000
      2 O            4.4420   -11.1260    19.1390 os         1 V5W      -0.415100
      3 Cl1          9.9240    -1.8820     9.3710 cl         1 V5W      -0.202000
      4 C20          9.4950    -1.1450    10.9160 ca         1 V5W       0.127000
      5 C21          8.4020    -0.2600    10.9370 ca         1 V5W      -0.098000
      6 C22          8.0090     0.3550    12.1370 ca         1 V5W      -0.097000
      7 Cl           8.2190     0.8460    14.8250 cl         1 V5W      -0.194000
      8 C2          10.2090    -1.4270    12.1070 ca         1 V5W      -0.070300
      9 C1           9.8070    -0.7940    13.3050 ca         1 V5W      -0.088000
     10 C3          11.3860    -2.4130    12.1360 c3         1 V5W       0.290100
     11 N           11.2350    -3.4100    13.2180 nu         1 V5W      -0.929100
     12 C4          10.1750    -4.2770    13.4180 ca         1 V5W       0.433900
     13 N5          10.2070    -4.9730    14.5590 nb         1 V5W      -0.289000
     14 C19          9.1640    -5.7880    14.7880 ca         1 V5W       0.202900
     15 C11          8.0860    -5.8990    13.8860 ca         1 V5W      -0.405600
     16 C5           8.1760    -5.1190    12.7210 ca         1 V5W       0.468900
     17 N2           7.1700    -5.1340    11.7650 nu         1 V5W      -0.900100
     18 C6           6.7750    -3.7810    11.2910 c5         1 V5W       0.230500
     19 C10          5.5930    -4.0350    10.3320 c5         1 V5W      -0.095900
     20 C9           5.0160    -2.5980    10.2580 c5         1 V5W      -0.077400
     21 C8           5.0770    -2.0960    11.7380 c5         1 V5W      -0.077400
     22 C7           6.0300    -3.0940    12.4700 c5         1 V5W      -0.095900
     23 N1           9.2270    -4.3220    12.4800 nb         1 V5W      -0.341000
     24 C12          6.9200    -6.7980    14.1740 c          1 V5W       0.648700
     25 O2           5.9680    -6.9110    13.4150 o          1 V5W      -0.650100
     26 N3           6.9720    -7.4970    15.3570 ns         1 V5W      -0.498900
     27 C13          5.9560    -8.4480    15.8130 c3         1 V5W       0.105000
     28 C14          6.1010    -9.8210    15.1260 c3         1 V5W      -0.120400
     29 C15          5.0240   -10.8370    15.5560 c3         1 V5W       0.124000
     30 N4           5.0750   -11.1630    16.9950 n          1 V5W      -0.453800
     31 C18          6.0300   -12.0860    17.6080 c5         1 V5W       0.063000
     32 C17          5.6980   -11.8510    19.1100 c5         1 V5W       0.142600
     33 C16          4.1600   -10.6380    17.9000 c          1 V5W       0.695100
     34 O1           3.2440    -9.8760    17.6380 o          1 V5W      -0.530000
     35 H1           7.8580    -0.0520    10.0190 ha         1 V5W       0.133000
     36 H2           7.1630     1.0370    12.1510 ha         1 V5W       0.135000
     37 H3          10.3370    -0.9950    14.2320 ha         1 V5W       0.136000
     38 H4          11.4770    -2.9390    11.1780 h1         1 V5W       0.069200
     39 H5          12.3160    -1.8430    12.2750 h1         1 V5W       0.069200
     40 H6          11.9450    -3.4210    13.9510 hn         1 V5W       0.514000
     41 H7           9.2040    -6.3460    15.7220 h4         1 V5W       0.010100
     42 H8           6.4310    -5.7830    12.0580 hn         1 V5W       0.534000
     43 H9           7.5710    -3.1700    10.8390 h1         1 V5W       0.081700
     44 H10          4.8550    -4.7410    10.7340 hc         1 V5W       0.051950
     45 H11          5.9170    -4.4080     9.3540 hc         1 V5W       0.051950
     46 H12          5.6290    -1.9640     9.6060 hc         1 V5W       0.042950
     47 H13          3.9970    -2.5800     9.8540 hc         1 V5W       0.042950
     48 H14          5.4510    -1.0680    11.7870 hc         1 V5W       0.042950
     49 H15          4.0840    -2.0920    12.2040 hc         1 V5W       0.042950
     50 H16          5.4470    -3.8070    13.0670 hc         1 V5W       0.051950
     51 H17          6.7180    -2.5850    13.1560 hc         1 V5W       0.051950
     52 H18          7.7880    -7.3500    15.9370 hn         1 V5W       0.310500
     53 H19          4.9580    -8.0340    15.6090 h1         1 V5W       0.062700
     54 H20          6.0550    -8.5660    16.9000 h1         1 V5W       0.062700
     55 H21          6.0390    -9.6910    14.0390 hc         1 V5W       0.053700
     56 H22          7.0940   -10.2330    15.3420 hc         1 V5W       0.053700
     57 H23          4.0310   -10.4490    15.2940 h1         1 V5W       0.061700
     58 H24          5.1670   -11.7660    14.9880 h1         1 V5W       0.061700
     59 H25          5.8350   -13.1230    17.3040 h1         1 V5W       0.056200
     60 H26          7.0710   -11.8310    17.3690 h1         1 V5W       0.056200
     61 H27          5.6060   -12.7870    19.6760 h1         1 V5W       0.066700
     62 H28          6.4690   -11.2300    19.5850 h1         1 V5W       0.066700
@<TRIPOS>BOND
     1     1     6 ar  
     2     1     7 1   
     3     1     9 ar  
     4     2    32 1   
     5     2    33 1   
     6     3     4 1   
     7     4     5 ar  
     8     4     8 ar  
     9     5     6 ar  
    10     5    35 1   
    11     6    36 1   
    12     8     9 ar  
    13     8    10 1   
    14     9    37 1   
    15    10    11 1   
    16    10    38 1   
    17    10    39 1   
    18    11    12 1   
    19    11    40 1   
    20    12    13 ar  
    21    12    23 ar  
    22    13    14 ar  
    23    14    15 ar  
    24    14    41 1   
    25    15    16 ar  
    26    15    24 1   
    27    16    17 1   
    28    16    23 ar  
    29    17    18 1   
    30    17    42 1   
    31    18    19 1   
    32    18    22 1   
    33    18    43 1   
    34    19    20 1   
    35    19    44 1   
    36    19    45 1   
    37    20    21 1   
    38    20    46 1   
    39    20    47 1   
    40    21    22 1   
    41    21    48 1   
    42    21    49 1   
    43    22    50 1   
    44    22    51 1   
    45    24    25 2   
    46    24    26 1   
    47    26    27 1   
    48    26    52 1   
    49    27    28 1   
    50    27    53 1   
    51    27    54 1   
    52    28    29 1   
    53    28    55 1   
    54    28    56 1   
    55    29    30 1   
    56    29    57 1   
    57    29    58 1   
    58    30    31 1   
    59    30    33 1   
    60    31    32 1   
    61    31    59 1   
    62    31    60 1   
    63    32    61 1   
    64    32    62 1   
    65    33    34 2   
@<TRIPOS>SUBSTRUCTURE
     1 V5W         1 TEMP              0 ****  ****    0 ROOT
