@<TRIPOS>MOLECULE
V5X
   87    91     1     0     0
SMALL
abcg2


@<TRIPOS>ATOM
      1 CBI          5.8830    -0.8250     0.0830 c3         1 V5X      -0.041900
      2 CBJ          4.9390    -1.9480    -0.1560 cc         1 V5X      -0.040300
      3 NBQ          5.2750    -2.9800    -0.9890 na         1 V5X      -0.223700
      4 CBR          4.2500    -3.8860    -1.0400 ca         1 V5X      -0.073200
      5 CBS          4.1200    -5.0790    -1.7350 ca         1 V5X      -0.097000
      6 CBT          2.9440    -5.8000    -1.5930 ca         1 V5X      -0.164000
      7 CBN          1.9080    -5.3290    -0.7660 ca         1 V5X       0.101100
      8 OBO          0.7330    -5.9900    -0.5950 os         1 V5X      -0.353100
      9 CBP          0.5130    -7.1820    -1.3120 c3         1 V5X       0.151900
     10 CBM          2.0390    -4.1330    -0.0760 ca         1 V5X      -0.089000
     11 CBL          3.2210    -3.4020    -0.2050 ca         1 V5X      -0.040800
     12 CBK          3.6840    -2.1690     0.3550 cd         1 V5X      -0.142400
     13 CBH          2.9450    -1.3000     1.3180 c3         1 V5X      -0.074200
     14 CBF          1.8700    -0.4690     0.6460 c          1 V5X       0.602100
     15 OBG          1.0860    -0.9440    -0.1600 o          1 V5X      -0.598100
     16 N            1.8260     0.8290     1.0000 ns         1 V5X      -0.494900
     17 CA           0.7580     1.6820     0.5440 c3         1 V5X       0.037700
     18 CB           0.9930     3.1270     0.9790 c3         1 V5X      -0.086400
     19 CAV          2.2740     3.7310     0.4140 c3         1 V5X      -0.074400
     20 CAW          2.3920     5.2180     0.7260 c3         1 V5X      -0.078400
     21 CAX          3.6980     5.8200     0.2270 c3         1 V5X      -0.068400
     22 CAY          3.7760     7.3210     0.4990 c3         1 V5X      -0.160400
     23 CAZ          5.1070     7.9010     0.0820 c          1 V5X       0.600100
     24 OBE          6.1760     7.4620     0.4700 o          1 V5X      -0.570100
     25 NBA          4.9980     8.9700    -0.7310 ns         1 V5X      -0.388400
     26 OBB          6.1100     9.4960    -1.3160 oh         1 V5X      -0.426100
     27 C           -0.5750     1.1770     1.1020 c          1 V5X       0.583100
     28 O           -0.6720     0.7720     2.2510 o          1 V5X      -0.603100
     29 NAR         -1.6110     1.2530     0.2600 ns         1 V5X      -0.493900
     30 CAQ         -2.9140     0.7150     0.5880 c3         1 V5X       0.098000
     31 CAP         -3.7710     0.5890    -0.6690 c3         1 V5X      -0.014200
     32 CAL         -5.0200    -0.1980    -0.4240 cc         1 V5X      -0.131400
     33 CAM         -6.3470     0.3340    -0.4490 ca         1 V5X      -0.094800
     34 CAN         -6.8770     1.5990    -0.7390 ca         1 V5X      -0.063000
     35 CAO         -8.2440     1.7800    -0.6770 ca         1 V5X      -0.142000
     36 CAK         -9.1020     0.7210    -0.3320 ca         1 V5X      -0.092000
     37 CAJ         -8.6090    -0.5350    -0.0370 ca         1 V5X      -0.128000
     38 CAI         -7.2270    -0.7100    -0.0940 ca         1 V5X      -0.043200
     39 NAH         -6.4660    -1.8120     0.1470 na         1 V5X      -0.216700
     40 CAG         -5.1380    -1.5220    -0.0570 cd         1 V5X       0.014700
     41 CAF         -4.1200    -2.5480     0.1770 ca         1 V5X      -0.051800
     42 CAE         -4.3020    -3.5060     1.1800 ca         1 V5X      -0.099000
     43 CAD         -3.3380    -4.4730     1.4190 ca         1 V5X      -0.104500
     44 CAA         -2.1710    -4.5000     0.6680 ca         1 V5X      -0.099000
     45 CAB         -1.9800    -3.5550    -0.3320 ca         1 V5X      -0.104500
     46 CAC         -2.9470    -2.5940    -0.5800 ca         1 V5X      -0.099000
     47 HBI1         6.2020    -0.3700    -0.8570 hc         1 V5X       0.049367
     48 HBI2         5.4190    -0.0470     0.6850 hc         1 V5X       0.049367
     49 HBI3         6.7810    -1.1610     0.6040 hc         1 V5X       0.049367
     50 HBQ          6.1460    -3.0540    -1.4890 hn         1 V5X       0.348000
     51 HBS          4.9090    -5.4500    -2.3770 ha         1 V5X       0.111000
     52 HBT          2.8420    -6.7290    -2.1350 ha         1 V5X       0.113000
     53 HBM          1.2240    -3.7720     0.5390 ha         1 V5X       0.138000
     54 HBP1        -0.4870    -7.5210    -1.0500 h1         1 V5X       0.035700
     55 HBP2         0.5550    -7.0290    -2.3950 h1         1 V5X       0.035700
     56 HBP3         1.2270    -7.9650    -1.0440 h1         1 V5X       0.035700
     57 HBH1         2.4400    -1.9210     2.0670 hc         1 V5X       0.063700
     58 HBH2         3.6360    -0.6670     1.8770 hc         1 V5X       0.063700
     59 H            2.4190     1.1560     1.7460 hn         1 V5X       0.319500
     60 HA           0.7280     1.6510    -0.5500 h1         1 V5X       0.068700
     61 HBC1         0.1370     3.7190     0.6430 hc         1 V5X       0.056200
     62 HBC2         1.0010     3.1850     2.0720 hc         1 V5X       0.056200
     63 HAV1         3.1480     3.2100     0.8150 hc         1 V5X       0.044200
     64 HAV2         2.2990     3.5830    -0.6710 hc         1 V5X       0.044200
     65 HAW1         1.5460     5.7490     0.2770 hc         1 V5X       0.039700
     66 HAW2         2.3120     5.3720     1.8070 hc         1 V5X       0.039700
     67 HAX1         4.5410     5.3180     0.7080 hc         1 V5X       0.054200
     68 HAX2         3.7990     5.6410    -0.8480 hc         1 V5X       0.054200
     69 HAY1         2.9470     7.8320     0.0050 hc         1 V5X       0.060200
     70 HAY2         3.6600     7.5060     1.5710 hc         1 V5X       0.060200
     71 HBA          4.1300     9.2060    -1.1890 hn         1 V5X       0.332500
     72 HBB          6.3650    10.2550    -0.7750 ho         1 V5X       0.446000
     73 HAR         -1.4370     1.5250    -0.6940 hn         1 V5X       0.311500
     74 HAQ1        -2.7860    -0.2650     1.0510 h1         1 V5X       0.060700
     75 HAQ2        -3.4250     1.3500     1.3170 h1         1 V5X       0.060700
     76 HAP1        -4.0370     1.5860    -1.0270 hc         1 V5X       0.044700
     77 HAP2        -3.1750     0.1420    -1.4680 hc         1 V5X       0.044700
     78 HAN         -6.2290     2.4240    -1.0100 ha         1 V5X       0.111000
     79 HAO         -8.6660     2.7510    -0.9020 ha         1 V5X       0.109000
     80 HAK        -10.1700     0.8940    -0.2960 ha         1 V5X       0.109000
     81 HAJ         -9.2700    -1.3500     0.2300 ha         1 V5X       0.113000
     82 HAH         -6.8270    -2.7310     0.3470 hn         1 V5X       0.351000
     83 HAE         -5.1920    -3.4850     1.7970 ha         1 V5X       0.111500
     84 HAC         -2.7930    -1.8850    -1.3810 ha         1 V5X       0.111500
     85 HAD         -3.4960    -5.2020     2.2030 ha         1 V5X       0.121500
     86 HAA         -1.4130    -5.2490     0.8550 ha         1 V5X       0.126000
     87 HAB         -1.0760    -3.5700    -0.9260 ha         1 V5X       0.121500
@<TRIPOS>BOND
     1     1     2 1   
     2     1    47 1   
     3     1    48 1   
     4     1    49 1   
     5     2     3 1   
     6     2    12 2   
     7     3     4 1   
     8     3    50 1   
     9     4     5 ar  
    10     4    11 ar  
    11     5     6 ar  
    12     5    51 1   
    13     6     7 ar  
    14     6    52 1   
    15     7     8 1   
    16     7    10 ar  
    17     8     9 1   
    18     9    54 1   
    19     9    55 1   
    20     9    56 1   
    21    10    11 ar  
    22    10    53 1   
    23    11    12 1   
    24    12    13 1   
    25    13    14 1   
    26    13    57 1   
    27    13    58 1   
    28    14    15 2   
    29    14    16 1   
    30    16    17 1   
    31    16    59 1   
    32    17    18 1   
    33    17    27 1   
    34    17    60 1   
    35    18    19 1   
    36    18    61 1   
    37    18    62 1   
    38    19    20 1   
    39    19    63 1   
    40    19    64 1   
    41    20    21 1   
    42    20    65 1   
    43    20    66 1   
    44    21    22 1   
    45    21    67 1   
    46    21    68 1   
    47    22    23 1   
    48    22    69 1   
    49    22    70 1   
    50    23    24 2   
    51    23    25 1   
    52    25    26 1   
    53    25    71 1   
    54    26    72 1   
    55    27    28 2   
    56    27    29 1   
    57    29    30 1   
    58    29    73 1   
    59    30    31 1   
    60    30    74 1   
    61    30    75 1   
    62    31    32 1   
    63    31    76 1   
    64    31    77 1   
    65    32    33 1   
    66    32    40 2   
    67    33    34 ar  
    68    33    38 ar  
    69    34    35 ar  
    70    34    78 1   
    71    35    36 ar  
    72    35    79 1   
    73    36    37 ar  
    74    36    80 1   
    75    37    38 ar  
    76    37    81 1   
    77    38    39 1   
    78    39    40 1   
    79    39    82 1   
    80    40    41 1   
    81    41    42 ar  
    82    41    46 ar  
    83    42    43 ar  
    84    42    83 1   
    85    43    44 ar  
    86    43    85 1   
    87    44    45 ar  
    88    44    86 1   
    89    45    46 ar  
    90    45    87 1   
    91    46    84 1   
@<TRIPOS>SUBSTRUCTURE
     1 V5X         1 TEMP              0 ****  ****    0 ROOT
