@<TRIPOS>MOLECULE
V5X
   87    91     1     0     0
SMALL
No Charge or Current Charge


@<TRIPOS>ATOM
      1 CBI          3.6510    -0.7830     2.3070 c3         1 V5X      -0.041900
      2 CBJ          4.2930    -1.2690     1.0350 cc         1 V5X      -0.040300
      3 NBQ          5.6040    -0.9470     0.6310 na         1 V5X      -0.223700
      4 CBR          5.8770    -1.5240    -0.5960 ca         1 V5X      -0.073200
      5 CBS          7.0470    -1.4550    -1.3620 ca         1 V5X      -0.097000
      6 CBT          7.0690    -2.1390    -2.5990 ca         1 V5X      -0.164000
      7 CBN          5.9280    -2.8690    -3.0400 ca         1 V5X       0.101100
      8 OBO          5.9050    -3.5490    -4.2430 os         1 V5X      -0.353100
      9 CBP          7.0350    -3.5710    -5.1340 c3         1 V5X       0.151900
     10 CBM          4.7670    -2.9130    -2.2380 ca         1 V5X      -0.089000
     11 CBL          4.7830    -2.2260    -1.0160 ca         1 V5X      -0.040800
     12 CBK          3.7810    -2.0670     0.0150 cd         1 V5X      -0.142400
     13 CBH          2.3780    -2.6330    -0.0450 c3         1 V5X      -0.074200
     14 CBF          1.3950    -1.6370    -0.6700 c          1 V5X       0.602100
     15 OBG          1.3160    -1.4570    -1.8780 o          1 V5X      -0.598100
     16 N            0.6310    -0.9280     0.2320 ns         1 V5X      -0.494900
     17 CA          -0.2120     0.2410    -0.1050 c3         1 V5X       0.037700
     18 CB           0.5510     1.5630     0.1860 c3         1 V5X      -0.086400
     19 CAV          1.9030     1.7050    -0.5570 c3         1 V5X      -0.074400
     20 CAW          2.6370     3.0230    -0.2370 c3         1 V5X      -0.078400
     21 CAX          4.0190     3.1170    -0.9220 c3         1 V5X      -0.068400
     22 CAY          4.7720     4.4260    -0.5880 c3         1 V5X      -0.160400
     23 CAZ          6.1460     4.4770    -1.2690 c          1 V5X       0.600100
     24 OBE          7.0980     3.8180    -0.8710 o          1 V5X      -0.570100
     25 NBA          6.2420     5.3610    -2.3380 ns         1 V5X      -0.388400
     26 OBB          7.3890     5.3410    -3.2240 oh         1 V5X      -0.426100
     27 C           -1.5590     0.1830     0.6720 c          1 V5X       0.583100
     28 O           -1.7340    -0.5180     1.6610 o          1 V5X      -0.603100
     29 NAR         -2.5600     0.9840     0.1580 ns         1 V5X      -0.493900
     30 CAQ         -3.9280     1.0560     0.6820 c3         1 V5X       0.098000
     31 CAP         -4.7630    -0.1950     0.3330 c3         1 V5X      -0.014200
     32 CAL         -6.2040    -0.0840     0.7740 cc         1 V5X      -0.131400
     33 CAM         -7.2110     0.6010     0.0070 ca         1 V5X      -0.094800
     34 CAN         -7.1010     1.3350    -1.1860 ca         1 V5X      -0.063000
     35 CAO         -8.2740     1.9020    -1.7260 ca         1 V5X      -0.142000
     36 CAK         -9.5170     1.7280    -1.0730 ca         1 V5X      -0.092000
     37 CAJ         -9.5910     0.9850     0.1240 ca         1 V5X      -0.128000
     38 CAI         -8.4070     0.4340     0.6350 ca         1 V5X      -0.043200
     39 NAH         -8.2520    -0.3160     1.7800 na         1 V5X      -0.216700
     40 CAG         -6.8750    -0.6400     1.8800 cd         1 V5X       0.014700
     41 CAF         -6.3330    -1.3780     3.0550 ca         1 V5X      -0.051800
     42 CAE         -7.2200    -2.1010     3.8890 ca         1 V5X      -0.099000
     43 CAD         -6.7520    -2.8070     5.0120 ca         1 V5X      -0.104500
     44 CAA         -5.3880    -2.7960     5.3320 ca         1 V5X      -0.099000
     45 CAB         -4.4950    -2.0710     4.5300 ca         1 V5X      -0.104500
     46 CAC         -4.9630    -1.3670     3.4070 ca         1 V5X      -0.099000
     47 HBI1         3.2270    -1.6190     2.8780 hc         1 V5X       0.049367
     48 HBI2         4.3810    -0.2740     2.9510 hc         1 V5X       0.049367
     49 HBI3         2.8430    -0.0740     2.0900 hc         1 V5X       0.049367
     50 HBQ          6.2520    -0.3700     1.1580 hn         1 V5X       0.348000
     51 HBS          7.9120    -0.8920    -1.0180 ha         1 V5X       0.111000
     52 HBT          7.9730    -2.0920    -3.1990 ha         1 V5X       0.113000
     53 HBM          3.8890    -3.4640    -2.5640 ha         1 V5X       0.138000
     54 HBP1         6.8010    -4.1590    -6.0310 h1         1 V5X       0.035700
     55 HBP2         7.3000    -2.5540    -5.4540 h1         1 V5X       0.035700
     56 HBP3         7.9070    -4.0250    -4.6460 h1         1 V5X       0.035700
     57 HBH1         2.3780    -3.5480    -0.6470 hc         1 V5X       0.063700
     58 HBH2         2.0530    -2.8780     0.9740 hc         1 V5X       0.063700
     59 H            0.7290    -1.1770     1.2100 hn         1 V5X       0.319500
     60 HA          -0.4610     0.2060    -1.1740 h1         1 V5X       0.068700
     61 HBC1        -0.0890     2.4120    -0.0820 hc         1 V5X       0.056200
     62 HBC2         0.7300     1.6360     1.2670 hc         1 V5X       0.056200
     63 HAV1         2.5630     0.8720    -0.2870 hc         1 V5X       0.044200
     64 HAV2         1.7310     1.6380    -1.6380 hc         1 V5X       0.044200
     65 HAW1         2.0160     3.8710    -0.5530 hc         1 V5X       0.039700
     66 HAW2         2.7700     3.1080     0.8490 hc         1 V5X       0.039700
     67 HAX1         4.6320     2.2590    -0.6150 hc         1 V5X       0.054200
     68 HAX2         3.8880     3.0410    -2.0100 hc         1 V5X       0.054200
     69 HAY1         4.1580     5.2730    -0.9180 hc         1 V5X       0.060200
     70 HAY2         4.9190     4.4750     0.4970 hc         1 V5X       0.060200
     71 HBA          5.3920     5.7810    -2.7120 hn         1 V5X       0.332500
     72 HBB          7.6620     6.2880    -3.2720 ho         1 V5X       0.446000
     73 HAR         -2.3290     1.5360    -0.6600 hn         1 V5X       0.311500
     74 HAQ1        -3.8900     1.1910     1.7710 h1         1 V5X       0.060700
     75 HAQ2        -4.4150     1.9440     0.2560 h1         1 V5X       0.060700
     76 HAP1        -4.7390    -0.3260    -0.7550 hc         1 V5X       0.044700
     77 HAP2        -4.2980    -1.1030     0.7300 hc         1 V5X       0.044700
     78 HAN         -6.1420     1.4650    -1.6830 ha         1 V5X       0.111000
     79 HAO         -8.2230     2.4750    -2.6490 ha         1 V5X       0.109000
     80 HAK        -10.4180     2.1670    -1.4950 ha         1 V5X       0.109000
     81 HAJ        -10.5410     0.8460     0.6360 ha         1 V5X       0.113000
     82 HAH         -8.9760    -0.5530     2.4470 hn         1 V5X       0.351000
     83 HAE         -8.2830    -2.1430     3.6650 ha         1 V5X       0.111500
     84 HAC         -4.2440    -0.7830     2.8480 ha         1 V5X       0.111500
     85 HAD         -7.4510    -3.3650     5.6330 ha         1 V5X       0.121500
     86 HAA         -5.0250    -3.3400     6.2010 ha         1 V5X       0.126000
     87 HAB         -3.4380    -2.0440     4.7840 ha         1 V5X       0.121500
@<TRIPOS>BOND
     1     1     2 1   
     2     1    47 1   
     3     1    48 1   
     4     1    49 1   
     5     2     3 1   
     6     2    12 2   
     7     3     4 1   
     8     3    50 1   
     9     4     5 ar  
    10     4    11 ar  
    11     5     6 ar  
    12     5    51 1   
    13     6     7 ar  
    14     6    52 1   
    15     7     8 1   
    16     7    10 ar  
    17     8     9 1   
    18     9    54 1   
    19     9    55 1   
    20     9    56 1   
    21    10    11 ar  
    22    10    53 1   
    23    11    12 1   
    24    12    13 1   
    25    13    14 1   
    26    13    57 1   
    27    13    58 1   
    28    14    15 2   
    29    14    16 1   
    30    16    17 1   
    31    16    59 1   
    32    17    18 1   
    33    17    27 1   
    34    17    60 1   
    35    18    19 1   
    36    18    61 1   
    37    18    62 1   
    38    19    20 1   
    39    19    63 1   
    40    19    64 1   
    41    20    21 1   
    42    20    65 1   
    43    20    66 1   
    44    21    22 1   
    45    21    67 1   
    46    21    68 1   
    47    22    23 1   
    48    22    69 1   
    49    22    70 1   
    50    23    24 2   
    51    23    25 1   
    52    25    26 1   
    53    25    71 1   
    54    26    72 1   
    55    27    28 2   
    56    27    29 1   
    57    29    30 1   
    58    29    73 1   
    59    30    31 1   
    60    30    74 1   
    61    30    75 1   
    62    31    32 1   
    63    31    76 1   
    64    31    77 1   
    65    32    33 1   
    66    32    40 2   
    67    33    34 ar  
    68    33    38 ar  
    69    34    35 ar  
    70    34    78 1   
    71    35    36 ar  
    72    35    79 1   
    73    36    37 ar  
    74    36    80 1   
    75    37    38 ar  
    76    37    81 1   
    77    38    39 1   
    78    39    40 1   
    79    39    82 1   
    80    40    41 1   
    81    41    42 ar  
    82    41    46 ar  
    83    42    43 ar  
    84    42    83 1   
    85    43    44 ar  
    86    43    85 1   
    87    44    45 ar  
    88    44    86 1   
    89    45    46 ar  
    90    45    87 1   
    91    46    84 1   
@<TRIPOS>SUBSTRUCTURE
     1 V5X         1 TEMP              0 ****  ****    0 ROOT
