@<TRIPOS>MOLECULE
V5Y
   21    21     1     0     0
SMALL
abcg2


@<TRIPOS>ATOM
      1 N1          24.8430    24.7840    30.2130 nt         1 V5Y      -0.611000
      2 C1          21.5860    25.4620    33.6660 c6         1 V5Y       0.158800
      3 C5          24.6420    24.4910    31.5120 c          1 V5Y       0.599100
      4 C4          23.6680    25.3900    32.2540 c6         1 V5Y      -0.139700
      5 C3          24.3900    26.1540    33.3760 c6         1 V5Y      -0.065900
      6 C2          23.3970    26.9800    34.1860 c6         1 V5Y       0.158800
      7 O           25.2160    23.5530    32.0680 o          1 V5Y      -0.607100
      8 C           22.5030    24.5730    32.8330 c6         1 V5Y      -0.065900
      9 N           22.3510    26.1130    34.7310 n7         1 V5Y      -0.861400
     10 H1          25.4840    24.2280    29.6680 hn         1 V5Y       0.313000
     11 H2          24.3690    25.5490    29.7640 hn         1 V5Y       0.313000
     12 H4          20.7950    24.8620    34.1200 h1         1 V5Y       0.029450
     13 H5          23.2570    26.1230    31.5530 hc         1 V5Y       0.040700
     14 H6          24.8870    25.4360    34.0330 hc         1 V5Y       0.059700
     15 H7          25.1560    26.8070    32.9530 hc         1 V5Y       0.059700
     16 H8          23.9090    27.4740    35.0140 h1         1 V5Y       0.029450
     17 H9          22.9770    27.7690    33.5390 h1         1 V5Y       0.029450
     18 H10         21.9330    24.1090    32.0250 hc         1 V5Y       0.059700
     19 H11         22.9050    23.7740    33.4600 hc         1 V5Y       0.059700
     20 H12         21.7250    26.6610    35.3100 hn         1 V5Y       0.410000
     21 H3          21.1030    26.1980    33.0020 h1         1 V5Y       0.029450
@<TRIPOS>BOND
     1     1     3 1   
     2     1    10 1   
     3     1    11 1   
     4     2     8 1   
     5     2     9 1   
     6     2    12 1   
     7     2    21 1   
     8     3     4 1   
     9     3     7 2   
    10     4     5 1   
    11     4     8 1   
    12     4    13 1   
    13     5     6 1   
    14     5    14 1   
    15     5    15 1   
    16     6     9 1   
    17     6    16 1   
    18     6    17 1   
    19     8    18 1   
    20     8    19 1   
    21     9    20 1   
@<TRIPOS>SUBSTRUCTURE
     1 V5Y         1 TEMP              0 ****  ****    0 ROOT
