@<TRIPOS>MOLECULE
V5Y
   21    21     1     0     0
SMALL
No Charge or Current Charge


@<TRIPOS>ATOM
      1 N1          24.8150    24.7860    30.1660 nt         1 V5Y      -0.611000
      2 C1          21.5570    25.4550    33.6640 c6         1 V5Y       0.158800
      3 C5          24.6910    24.4680    31.4730 c          1 V5Y       0.599100
      4 C4          23.7230    25.3270    32.3090 c6         1 V5Y      -0.139700
      5 C3          24.4290    26.1520    33.4200 c6         1 V5Y      -0.065900
      6 C2          23.4060    27.0030    34.2150 c6         1 V5Y       0.158800
      7 O           25.3290    23.5390    31.9410 o          1 V5Y      -0.607100
      8 C           22.4980    24.5360    32.8450 c6         1 V5Y      -0.065900
      9 N           22.2930    26.1710    34.7360 n7         1 V5Y      -0.861400
     10 H1          25.4390    24.2480    29.5840 hn         1 V5Y       0.313000
     11 H2          24.2870    25.5550    29.7810 hn         1 V5Y       0.313000
     12 H4          20.7520    24.8530    34.1100 h1         1 V5Y       0.029450
     13 H5          23.3100    26.0690    31.6100 hc         1 V5Y       0.040700
     14 H6          24.9510    25.4740    34.1100 hc         1 V5Y       0.059700
     15 H7          25.1950    26.8050    32.9810 hc         1 V5Y       0.059700
     16 H8          23.9160    27.5010    35.0530 h1         1 V5Y       0.029450
     17 H9          22.9980    27.7880    33.5610 h1         1 V5Y       0.029450
     18 H10         21.9430    24.0830    32.0120 hc         1 V5Y       0.059700
     19 H11         22.8410    23.7080    33.4810 hc         1 V5Y       0.059700
     20 H12         21.6340    26.7800    35.2380 hn         1 V5Y       0.410000
     21 H3          21.0890    26.1900    32.9920 h1         1 V5Y       0.029450
@<TRIPOS>BOND
     1     1     3 1   
     2     1    10 1   
     3     1    11 1   
     4     2     8 1   
     5     2     9 1   
     6     2    12 1   
     7     2    21 1   
     8     3     4 1   
     9     3     7 2   
    10     4     5 1   
    11     4     8 1   
    12     4    13 1   
    13     5     6 1   
    14     5    14 1   
    15     5    15 1   
    16     6     9 1   
    17     6    16 1   
    18     6    17 1   
    19     8    18 1   
    20     8    19 1   
    21     9    20 1   
@<TRIPOS>SUBSTRUCTURE
     1 V5Y         1 TEMP              0 ****  ****    0 ROOT
