@<TRIPOS>MOLECULE
V5Z
   56    58     1     0     0
SMALL
bcc


@<TRIPOS>ATOM
      1 C01         24.0430     7.6510     0.8020 c3         1 V5Z       0.127200
      2 C03         22.2220     9.1760     0.7940 ca         1 V5Z       0.082600
      3 C04         22.4300     9.5710     2.1010 ca         1 V5Z      -0.151000
      4 C05         21.5630    10.5020     2.6890 ca         1 V5Z      -0.096800
      5 C06         21.7070    10.9680     4.0440 ce         1 V5Z       0.106800
      6 C07         22.6700    10.6890     4.9540 cd         1 V5Z      -0.083600
      7 C09         24.4300     9.9000     5.8970 cc         1 V5Z       0.358600
      8 C10         25.6940     9.2430     6.1880 ce         1 V5Z       0.317900
      9 C14         24.2200    10.8770     8.2110 ca         1 V5Z       0.125600
     10 C15         24.6250    12.1270     8.6470 ca         1 V5Z      -0.103000
     11 C16         24.9810    12.3220     9.9740 ca         1 V5Z      -0.101000
     12 C17         24.9370    11.2580    10.8580 ca         1 V5Z      -0.036400
     13 C19         25.7430    12.8130    12.6160 c3         1 V5Z       0.111433
     14 C20         26.4240    10.4960    12.6360 c3         1 V5Z       0.111433
     15 C21         24.1040    11.1240    13.1440 c3         1 V5Z       0.111433
     16 C22         24.5390     9.9990    10.4230 ca         1 V5Z      -0.101000
     17 C23         24.1720     9.8140     9.1040 ca         1 V5Z      -0.103000
     18 C24         22.6730    11.2440     6.3200 c          1 V5Z       0.694700
     19 C26         20.4930    11.0190     1.9440 ca         1 V5Z      -0.151000
     20 C27         20.2900    10.6290     0.6300 ca         1 V5Z       0.082600
     21 C29         18.3770    11.9960     0.3580 c3         1 V5Z       0.127200
     22 C30         21.1570     9.6980     0.0460 ca         1 V5Z       0.138100
     23 N08         23.7800     9.8830     4.7840 nd         1 V5Z      -0.505300
     24 N11         26.3830     8.4610     5.4540 n2         1 V5Z      -0.379200
     25 N13         23.8250    10.6930     6.8700 n          1 V5Z      -0.376500
     26 N18         25.2990    11.4250    12.2880 n4         1 V5Z      -0.484200
     27 O02         22.9800     8.2880     0.1200 os         1 V5Z      -0.314400
     28 O12         25.8770     8.1790     4.2470 oh         1 V5Z      -0.330500
     29 O25         21.9000    11.9830     6.8880 o          1 V5Z      -0.579500
     30 O28         19.3040    11.0690    -0.1700 os         1 V5Z      -0.314400
     31 O31         20.9350     9.3320    -1.2230 oh         1 V5Z      -0.458100
     32 H1          24.4900     6.9570     0.0960 h1         1 V5Z       0.045200
     33 H2          24.8020     8.3670     1.1250 h1         1 V5Z       0.045200
     34 H3          23.6860     7.0940     1.6720 h1         1 V5Z       0.045200
     35 H4          23.2530     9.1750     2.6760 ha         1 V5Z       0.157500
     36 H6          20.9320    11.6450     4.3880 ha         1 V5Z       0.145000
     37 H8          26.1480     9.4380     7.1510 h4         1 V5Z       0.027800
     38 H9          24.6760    12.9570     7.9560 ha         1 V5Z       0.177500
     39 H10         25.2890    13.3110    10.2760 ha         1 V5Z       0.152500
     40 H11         25.9880    12.8390    13.6740 hx         1 V5Z       0.096144
     41 H12         26.6260    13.0660    12.0360 hx         1 V5Z       0.096144
     42 H13         24.9380    13.5160    12.4200 hx         1 V5Z       0.096144
     43 H14         26.6830    10.6480    13.6810 hx         1 V5Z       0.096144
     44 H15         26.1160     9.4670    12.4890 hx         1 V5Z       0.096144
     45 H16         27.2740    10.7280    12.0000 hx         1 V5Z       0.096144
     46 H17         24.3820    11.2760    14.1840 hx         1 V5Z       0.096144
     47 H18         23.3000    11.8000    12.8670 hx         1 V5Z       0.096144
     48 H19         23.7920    10.0950    13.0000 hx         1 V5Z       0.096144
     49 H20         24.4910     9.1500    11.0900 ha         1 V5Z       0.152500
     50 H21         23.8450     8.8370     8.7720 ha         1 V5Z       0.177500
     51 H22         19.8310    11.7350     2.4130 ha         1 V5Z       0.157500
     52 H23         17.6670    12.2080    -0.4370 h1         1 V5Z       0.045200
     53 H24         17.8350    11.5890     1.2150 h1         1 V5Z       0.045200
     54 H25         18.8590    12.9310     0.6570 h1         1 V5Z       0.045200
     55 H26         26.5210     7.5780     3.8530 ho         1 V5Z       0.439000
     56 H27         21.5980     8.6860    -1.5010 ho         1 V5Z       0.448000
@<TRIPOS>BOND
     1     1    27 1   
     2     1    32 1   
     3     1    33 1   
     4     1    34 1   
     5     2     3 ar  
     6     2    22 ar  
     7     2    27 1   
     8     3     4 ar  
     9     3    35 1   
    10     4     5 1   
    11     4    19 ar  
    12     5     6 2   
    13     5    36 1   
    14     6    18 1   
    15     6    23 1   
    16     7     8 1   
    17     7    23 2   
    18     7    25 1   
    19     8    24 2   
    20     8    37 1   
    21     9    10 ar  
    22     9    17 ar  
    23     9    25 1   
    24    10    11 ar  
    25    10    38 1   
    26    11    12 ar  
    27    11    39 1   
    28    12    16 ar  
    29    12    26 1   
    30    13    26 1   
    31    13    40 1   
    32    13    41 1   
    33    13    42 1   
    34    14    26 1   
    35    14    43 1   
    36    14    44 1   
    37    14    45 1   
    38    15    26 1   
    39    15    46 1   
    40    15    47 1   
    41    15    48 1   
    42    16    17 ar  
    43    16    49 1   
    44    17    50 1   
    45    18    25 1   
    46    18    29 2   
    47    19    20 ar  
    48    19    51 1   
    49    20    22 ar  
    50    20    30 1   
    51    21    30 1   
    52    21    52 1   
    53    21    53 1   
    54    21    54 1   
    55    22    31 1   
    56    24    28 1   
    57    28    55 1   
    58    31    56 1   
@<TRIPOS>SUBSTRUCTURE
     1 V5Z         1 TEMP              0 ****  ****    0 ROOT
