@<TRIPOS>MOLECULE
V5Z
   56    58     1     0     0
SMALL
No Charge or Current Charge


@<TRIPOS>ATOM
      1 C01         24.5560     8.3660     0.2240 c3         1 V5Z       0.150400
      2 C03         22.3500     9.4660     0.4550 ca         1 V5Z       0.082600
      3 C04         22.6900    10.0490     1.6950 ca         1 V5Z      -0.133000
      4 C05         21.7600    10.8470     2.3910 ca         1 V5Z      -0.096800
      5 C06         22.1000    11.4830     3.7020 ce         1 V5Z       0.056800
      6 C07         22.8760    11.0200     4.7490 cd         1 V5Z      -0.083600
      7 C09         24.1340     9.7690     5.9180 cc         1 V5Z       0.358600
      8 C10         25.0740     8.7130     6.3390 ce         1 V5Z       0.317900
      9 C14         24.1410    10.9980     8.1400 ca         1 V5Z       0.125600
     10 C15         24.5570    12.2470     8.6420 ca         1 V5Z      -0.085000
     11 C16         24.9480    12.3950     9.9850 ca         1 V5Z      -0.083000
     12 C17         24.9530    11.2840    10.8560 ca         1 V5Z       0.102000
     13 C19         25.7370    12.8190    12.7420 c3         1 V5Z       0.083233
     14 C20         26.6080    10.5070    12.5800 c3         1 V5Z       0.083233
     15 C21         24.2070    10.9400    13.2320 c3         1 V5Z       0.083233
     16 C22         24.5700    10.0300    10.3460 ca         1 V5Z      -0.083000
     17 C23         24.1820     9.8840     9.0030 ca         1 V5Z      -0.085000
     18 C24         23.0240    11.7250     6.0310 c          1 V5Z       0.552200
     19 C26         20.4890    11.0770     1.8270 ca         1 V5Z      -0.133000
     20 C27         20.1340    10.5010     0.5850 ca         1 V5Z       0.082600
     21 C29         17.8710    11.5150     0.6340 c3         1 V5Z       0.150400
     22 C30         21.0710     9.6910    -0.0960 ca         1 V5Z       0.138100
     23 N08         23.5580     9.8100     4.7090 nd         1 V5Z      -0.505300
     24 N11         24.9360     7.4700     5.9710 n2         1 V5Z      -0.280700
     25 N13         23.8400    10.8650     6.7350 n          1 V5Z      -0.309500
     26 N18         25.3700    11.3820    12.3270 n4         1 V5Z      -0.538000
     27 O02         23.2340     8.6710    -0.2570 os         1 V5Z      -0.337600
     28 O12         25.8490     6.5830     6.5680 oh         1 V5Z      -0.468000
     29 O25         22.5250    12.7780     6.4050 o          1 V5Z      -0.504000
     30 O28         18.8880    10.7070     0.0130 os         1 V5Z      -0.337600
     31 O31         20.7590     9.1170    -1.3030 oh         1 V5Z      -0.497100
     32 H1          25.0800     7.7180    -0.4900 h1         1 V5Z       0.045200
     33 H2          25.1470     9.2830     0.3470 h1         1 V5Z       0.045200
     34 H3          24.5100     7.8430     1.1870 h1         1 V5Z       0.045200
     35 H4          23.6780     9.8990     2.1200 ha         1 V5Z       0.139500
     36 H6          21.5900    12.4280     3.8930 ha         1 V5Z       0.195000
     37 H8          25.8060     9.0060     7.0940 h4         1 V5Z       0.027800
     38 H9          24.5890    13.1130     7.9870 ha         1 V5Z       0.159500
     39 H10         25.2520    13.3810    10.3210 ha         1 V5Z       0.134500
     40 H11         26.0190    12.8310    13.7970 hx         1 V5Z       0.096144
     41 H12         26.5780    13.1650    12.1370 hx         1 V5Z       0.096144
     42 H13         24.8760    13.4710    12.5860 hx         1 V5Z       0.096144
     43 H14         26.9050    10.5900    13.6270 hx         1 V5Z       0.096144
     44 H15         26.3720     9.4670    12.3480 hx         1 V5Z       0.096144
     45 H16         27.4240    10.8470    11.9380 hx         1 V5Z       0.096144
     46 H17         24.5070    11.0270    14.2780 hx         1 V5Z       0.096144
     47 H18         23.3430    11.5800    13.0420 hx         1 V5Z       0.096144
     48 H19         23.9480     9.9030    13.0110 hx         1 V5Z       0.096144
     49 H20         24.5710     9.1580    10.9940 ha         1 V5Z       0.134500
     50 H21         23.8690     8.9020     8.6570 ha         1 V5Z       0.159500
     51 H22         19.7850    11.7010     2.3710 ha         1 V5Z       0.139500
     52 H23         16.9700    11.5390     0.0090 h1         1 V5Z       0.045200
     53 H24         17.5930    11.1070     1.6140 h1         1 V5Z       0.045200
     54 H25         18.2200    12.5470     0.7670 h1         1 V5Z       0.045200
     55 H26         25.6270     5.6960     6.1950 ho         1 V5Z       0.478000
     56 H27         21.5500     8.6090    -1.5880 ho         1 V5Z       0.487000
@<TRIPOS>BOND
     1     1    27 1   
     2     1    32 1   
     3     1    33 1   
     4     1    34 1   
     5     2     3 ar  
     6     2    22 ar  
     7     2    27 1   
     8     3     4 ar  
     9     3    35 1   
    10     4     5 1   
    11     4    19 ar  
    12     5     6 2   
    13     5    36 1   
    14     6    18 1   
    15     6    23 1   
    16     7     8 1   
    17     7    23 2   
    18     7    25 1   
    19     8    24 2   
    20     8    37 1   
    21     9    10 ar  
    22     9    17 ar  
    23     9    25 1   
    24    10    11 ar  
    25    10    38 1   
    26    11    12 ar  
    27    11    39 1   
    28    12    16 ar  
    29    12    26 1   
    30    13    26 1   
    31    13    40 1   
    32    13    41 1   
    33    13    42 1   
    34    14    26 1   
    35    14    43 1   
    36    14    44 1   
    37    14    45 1   
    38    15    26 1   
    39    15    46 1   
    40    15    47 1   
    41    15    48 1   
    42    16    17 ar  
    43    16    49 1   
    44    17    50 1   
    45    18    25 1   
    46    18    29 2   
    47    19    20 ar  
    48    19    51 1   
    49    20    22 ar  
    50    20    30 1   
    51    21    30 1   
    52    21    52 1   
    53    21    53 1   
    54    21    54 1   
    55    22    31 1   
    56    24    28 1   
    57    28    55 1   
    58    31    56 1   
@<TRIPOS>SUBSTRUCTURE
     1 V5Z         1 TEMP              0 ****  ****    0 ROOT
