@<TRIPOS>MOLECULE
V60
   25    25     1     0     0
SMALL
No Charge or Current Charge


@<TRIPOS>ATOM
      1 C1          -4.7880     9.1640   -34.0000 c3         1 V60      -0.086600
      2 C6          -6.5490     5.4230   -38.3900 cc         1 V60       0.198500
      3 C5          -6.6290     6.2650   -37.1460 c          1 V60       0.526600
      4 C4          -5.2850     6.9190   -35.1050 c3         1 V60       0.109000
      5 C3          -3.6050     8.5530   -36.1760 c3         1 V60      -0.086600
      6 C2          -4.8990     8.4030   -35.3400 c3         1 V60      -0.090700
      7 C8          -7.2320     4.5420   -40.3260 cd         1 V60      -0.178000
      8 O1          -7.5850     6.9700   -36.8370 o          1 V60      -0.608100
      9 N1          -5.5030     6.1760   -36.3490 ns         1 V60      -0.493900
     10 C7          -7.6020     5.3840   -39.3220 cc         1 V60      -0.166000
     11 N2          -5.9550     4.0990   -39.9570 na         1 V60      -0.002200
     12 N3          -5.5280     4.6500   -38.7470 nd         1 V60      -0.523800
     13 H1          -5.7270     9.0990   -33.4380 hc         1 V60       0.033867
     14 H2          -3.9860     8.7470   -33.3790 hc         1 V60       0.033867
     15 H3          -4.5720    10.2260   -34.1740 hc         1 V60       0.033867
     16 H4          -6.2020     6.8700   -34.5020 h1         1 V60       0.055200
     17 H5          -4.4870     6.4210   -34.5380 h1         1 V60       0.055200
     18 H6          -3.3620     9.6120   -36.3260 hc         1 V60       0.033867
     19 H7          -2.7570     8.0750   -35.6710 hc         1 V60       0.033867
     20 H8          -3.7190     8.0950   -37.1660 hc         1 V60       0.033867
     21 H9          -5.7130     8.8710   -35.9080 hc         1 V60       0.063700
     22 H10         -7.7410     4.2310   -41.2320 h4         1 V60       0.158000
     23 H11         -4.7690     5.5650   -36.6910 hn         1 V60       0.329500
     24 H12         -8.5340     5.9360   -39.2370 ha         1 V60       0.164000
     25 H13         -5.3690     3.4490   -40.4830 hn         1 V60       0.374000
@<TRIPOS>BOND
     1     1     6 1   
     2     1    13 1   
     3     1    14 1   
     4     1    15 1   
     5     2     3 1   
     6     2    10 1   
     7     2    12 2   
     8     3     8 2   
     9     3     9 1   
    10     4     6 1   
    11     4     9 1   
    12     4    16 1   
    13     4    17 1   
    14     5     6 1   
    15     5    18 1   
    16     5    19 1   
    17     5    20 1   
    18     6    21 1   
    19     7    10 2   
    20     7    11 1   
    21     7    22 1   
    22     9    23 1   
    23    10    24 1   
    24    11    12 1   
    25    11    25 1   
@<TRIPOS>SUBSTRUCTURE
     1 V60         1 TEMP              0 ****  ****    0 ROOT
