@<TRIPOS>MOLECULE
V60
   25    25     1     0     0
SMALL
abcg2


@<TRIPOS>ATOM
      1 C1          -4.7850     9.1490   -34.0480 c3         1 V60      -0.086600
      2 C6          -6.6590     5.4660   -38.3620 cc         1 V60       0.198500
      3 C5          -6.6780     6.2350   -37.0920 c          1 V60       0.526600
      4 C4          -5.3290     6.9810   -35.1700 c3         1 V60       0.109000
      5 C3          -3.5160     8.4720   -36.1230 c3         1 V60      -0.086600
      6 C2          -4.8570     8.4240   -35.3920 c3         1 V60      -0.090700
      7 C8          -7.2110     4.4970   -40.2660 cd         1 V60      -0.178000
      8 O1          -7.7010     6.8220   -36.7240 o          1 V60      -0.608100
      9 N1          -5.5270     6.2320   -36.3980 ns         1 V60      -0.493900
     10 C7          -7.7380     5.2580   -39.2450 cc         1 V60      -0.166000
     11 N2          -5.9080     4.2970   -39.9600 na         1 V60      -0.002200
     12 N3          -5.5480     4.8740   -38.8090 nd         1 V60      -0.523800
     13 H1          -5.7510     9.1360   -33.5380 hc         1 V60       0.033867
     14 H2          -4.0510     8.6730   -33.3920 hc         1 V60       0.033867
     15 H3          -4.4870    10.1900   -34.1840 hc         1 V60       0.033867
     16 H4          -6.2710     6.9830   -34.6230 h1         1 V60       0.055200
     17 H5          -4.5910     6.4430   -34.5690 h1         1 V60       0.055200
     18 H6          -3.2070     9.5050   -36.2960 hc         1 V60       0.033867
     19 H7          -2.7380     7.9820   -35.5300 hc         1 V60       0.033867
     20 H8          -3.5680     7.9710   -37.0910 hc         1 V60       0.033867
     21 H9          -5.6100     8.9200   -36.0140 hc         1 V60       0.063700
     22 H10         -7.6490     4.0920   -41.1630 h4         1 V60       0.158000
     23 H11         -4.7440     5.7450   -36.8070 hn         1 V60       0.329500
     24 H12         -8.7480     5.6150   -39.1450 ha         1 V60       0.164000
     25 H13         -5.2270     3.7820   -40.4960 hn         1 V60       0.374000
@<TRIPOS>BOND
     1     1     6 1   
     2     1    13 1   
     3     1    14 1   
     4     1    15 1   
     5     2     3 1   
     6     2    10 1   
     7     2    12 2   
     8     3     8 2   
     9     3     9 1   
    10     4     6 1   
    11     4     9 1   
    12     4    16 1   
    13     4    17 1   
    14     5     6 1   
    15     5    18 1   
    16     5    19 1   
    17     5    20 1   
    18     6    21 1   
    19     7    10 2   
    20     7    11 1   
    21     7    22 1   
    22     9    23 1   
    23    10    24 1   
    24    11    12 1   
    25    11    25 1   
@<TRIPOS>SUBSTRUCTURE
     1 V60         1 TEMP              0 ****  ****    0 ROOT
