@<TRIPOS>MOLECULE
V61
   22    22     1     0     0
SMALL
bcc


@<TRIPOS>ATOM
      1 C11         16.0860     6.9770    21.1920 ca         1 V61       0.120400
      2 C13         17.4180     7.0210    20.8180 ca         1 V61       0.102900
      3 N           19.1150     6.1210    18.0750 n8         1 V61      -0.900800
      4 C           21.1000     7.5970    17.7820 c          1 V61       0.931600
      5 O           21.6580     8.6700    18.0790 o          1 V61      -0.825300
      6 CA          19.5940     7.4890    18.1510 c3         1 V61       0.021500
      7 C03         19.3510     8.0660    19.5540 c3         1 V61      -0.016100
      8 C04         17.9080     7.9910    19.9570 ca         1 V61      -0.046300
      9 C05         16.9820     8.9000    19.4650 ca         1 V61       0.102900
     10 C07         15.6470     8.8640    19.8180 ca         1 V61       0.120400
     11 C09         15.1820     7.8980    20.6930 ca         1 V61      -0.030100
     12 F06         17.3850     9.8510    18.6190 f          1 V61      -0.108400
     13 F08         14.8150     9.7720    19.3150 f          1 V61      -0.117900
     14 F12         15.6810     6.0430    22.0470 f          1 V61      -0.117900
     15 F14         18.2390     6.1070    21.3370 f          1 V61      -0.108400
     16 I10         13.1810     7.8340    21.2480 i          1 V61      -0.135900
     17 H1          18.1650     6.0980    17.7290 hn         1 V61       0.335300
     18 H2          19.6880     5.6350    17.3970 hn         1 V61       0.335300
     19 H5          19.0750     8.1420    17.4320 h1         1 V61       0.010700
     20 H6          19.9590     7.5200    20.2750 hc         1 V61       0.075700
     21 H7          19.6810     9.1030    19.5850 hc         1 V61       0.075700
     22 O1          21.6070     6.6240    17.1910 o          1 V61      -0.825300
@<TRIPOS>BOND
     1     1     2 ar  
     2     1    11 ar  
     3     1    14 1   
     4     2     8 ar  
     5     2    15 1   
     6     3     6 1   
     7     3    17 1   
     8     3    18 1   
     9     4     5 1   
    10     4     6 1   
    11     4    22 1   
    12     6     7 1   
    13     6    19 1   
    14     7     8 1   
    15     7    20 1   
    16     7    21 1   
    17     8     9 ar  
    18     9    10 ar  
    19     9    12 1   
    20    10    11 ar  
    21    10    13 1   
    22    11    16 1   
@<TRIPOS>SUBSTRUCTURE
     1 V61         1 TEMP              0 ****  ****    0 ROOT
