@<TRIPOS>MOLECULE
V61
   22    22     1     0     0
SMALL
No Charge or Current Charge


@<TRIPOS>ATOM
      1 C11         16.0530     7.0510    21.2580 ca         1 V61       0.120400
      2 C13         17.4200     7.0940    20.9210 ca         1 V61       0.102900
      3 N           19.2600     5.9600    18.1840 n8         1 V61      -0.900800
      4 C           21.1990     7.7070    17.7270 c          1 V61       0.931600
      5 O           22.0680     7.9180    18.5690 o          1 V61      -0.825300
      6 CA          19.7020     7.4070    18.1930 c3         1 V61       0.021500
      7 C03         19.3780     8.0640    19.5660 c3         1 V61      -0.016100
      8 C04         17.8920     8.0020    19.9430 ca         1 V61      -0.046300
      9 C05         16.9630     8.8670    19.3190 ca         1 V61       0.102900
     10 C07         15.5980     8.8200    19.6590 ca         1 V61       0.120400
     11 C09         15.1380     7.9120    20.6280 ca         1 V61      -0.030100
     12 F06         17.3830     9.7550    18.3880 f          1 V61      -0.108400
     13 F08         14.7240     9.6560    19.0510 f          1 V61      -0.117900
     14 F12         15.6190     6.1750    22.1940 f          1 V61      -0.117900
     15 F14         18.2790     6.2540    21.5450 f          1 V61      -0.108400
     16 I10         13.0320     7.8420    21.1510 i          1 V61      -0.135900
     17 H1          18.2570     5.9080    18.3850 hn         1 V61       0.335300
     18 H2          19.3510     5.5860    17.2320 hn         1 V61       0.335300
     19 H5          19.0650     7.9080    17.4510 h1         1 V61       0.010700
     20 H6          20.0010     7.5980    20.3390 hc         1 V61       0.075700
     21 H7          19.6970     9.1130    19.5340 hc         1 V61       0.075700
     22 O1          21.4380     7.7260    16.5230 o          1 V61      -0.825300
@<TRIPOS>BOND
     1     1     2 ar  
     2     1    11 ar  
     3     1    14 1   
     4     2     8 ar  
     5     2    15 1   
     6     3     6 1   
     7     3    17 1   
     8     3    18 1   
     9     4     5 1   
    10     4     6 1   
    11     4    22 1   
    12     6     7 1   
    13     6    19 1   
    14     7     8 1   
    15     7    20 1   
    16     7    21 1   
    17     8     9 ar  
    18     9    10 ar  
    19     9    12 1   
    20    10    11 ar  
    21    10    13 1   
    22    11    16 1   
@<TRIPOS>SUBSTRUCTURE
     1 V61         1 TEMP              0 ****  ****    0 ROOT
