@<TRIPOS>MOLECULE
V62
   68    71     1     0     0
SMALL
abcg2


@<TRIPOS>ATOM
      1 C7          37.1280   -23.9950  -103.4140 ca         1 V62      -0.409600
      2 C9          38.8310   -21.9960  -103.9400 ca         1 V62       0.428900
      3 N1          33.6810   -27.8980   -99.2450 n          1 V62      -0.455800
      4 C2          34.0960   -26.0900  -100.8880 c3         1 V62      -0.124400
      5 N2          39.2660   -22.9500  -103.1040 nb         1 V62      -0.289000
      6 C4          34.0380   -29.2970   -99.2950 c5         1 V62       0.067000
      7 N3          39.6860   -20.9770  -104.1680 nu         1 V62      -0.929100
      8 C6          33.6370   -27.4420   -97.9780 c          1 V62       0.691100
      9 C17         37.9990   -17.9180  -105.5930 ca         1 V62      -0.005900
     10 C16         37.0570   -16.9750  -105.2140 ca         1 V62      -0.089000
     11 C14         36.5520   -16.9380  -103.9180 ca         1 V62      -0.048300
     12 C15         35.5200   -15.9200  -103.5410 c3         1 V62      -0.050800
     13 C13         37.0580   -17.8820  -103.0270 ca         1 V62      -0.009900
     14 BR          36.4490   -17.9060  -101.2370 br         1 V62      -0.093100
     15 C12         37.9950   -18.8280  -103.4060 ca         1 V62      -0.066000
     16 C11         38.4750   -18.8810  -104.7090 ca         1 V62      -0.066300
     17 C8          38.3970   -23.9170  -102.8670 ca         1 V62       0.202900
     18 N4          37.6580   -21.9570  -104.5540 nb         1 V62      -0.334000
     19 C18         36.7900   -22.9430  -104.3240 ca         1 V62       0.470900
     20 C19         35.0400   -21.8430  -105.7420 c6         1 V62       0.255500
     21 C24         34.9740   -20.4780  -105.0580 c6         1 V62      -0.086900
     22 C23         34.0060   -19.5650  -105.8260 c6         1 V62      -0.072400
     23 C22         34.0140   -19.8490  -107.3370 c6         1 V62      -0.077400
     24 C21         35.3740   -20.3720  -107.7840 c6         1 V62      -0.072400
     25 C20         35.6950   -21.7240  -107.1290 c6         1 V62      -0.086900
     26 C           36.1850   -25.0810  -103.0870 c          1 V62       0.643700
     27 O           35.3080   -25.4410  -103.8760 o          1 V62      -0.648100
     28 N           36.3240   -25.6630  -101.8810 ns         1 V62      -0.493900
     29 C1          35.4100   -26.6750  -101.3980 c3         1 V62       0.105000
     30 C3          33.1430   -27.1540  -100.3630 c3         1 V62       0.133000
     31 O2          33.2440   -26.3670   -97.5870 o          1 V62      -0.534000
     32 O1          34.1040   -28.3840   -97.1400 os         1 V62      -0.415100
     33 C5          34.6290   -29.4790   -97.8980 c5         1 V62       0.141600
     34 H1          34.2990   -25.3570  -100.1030 hc         1 V62       0.065700
     35 H2          33.5940   -25.5550  -101.6970 hc         1 V62       0.065700
     36 H5          33.1600   -29.9260   -99.4660 h1         1 V62       0.057200
     37 H6          34.7680   -29.5060  -100.0760 h1         1 V62       0.057200
     38 H7          40.5860   -21.0330  -103.7210 hn         1 V62       0.514000
     39 H9          36.6980   -16.2470  -105.9300 ha         1 V62       0.131000
     40 H10         34.5970   -16.3950  -103.2050 hc         1 V62       0.053033
     41 H11         35.8670   -15.2770  -102.7310 hc         1 V62       0.053033
     42 H12         35.2780   -15.2850  -104.3910 hc         1 V62       0.053033
     43 H13         38.3590   -19.5510  -102.6880 ha         1 V62       0.140000
     44 H14         38.7470   -24.7010  -102.2010 h4         1 V62       0.014100
     45 H15         34.0060   -22.1660  -105.8910 h1         1 V62       0.046700
     46 H16         34.6490   -20.5890  -104.0220 hc         1 V62       0.054200
     47 H17         35.9680   -20.0330  -105.0280 hc         1 V62       0.054200
     48 H18         34.2860   -18.5250  -105.6430 hc         1 V62       0.040450
     49 H19         32.9920   -19.6840  -105.4380 hc         1 V62       0.040450
     50 H20         33.7480   -18.9460  -107.8900 hc         1 V62       0.037700
     51 H21         33.2480   -20.5910  -107.5840 hc         1 V62       0.037700
     52 H22         36.1400   -19.6390  -107.5160 hc         1 V62       0.040450
     53 H23         35.4140   -20.4660  -108.8710 hc         1 V62       0.040450
     54 H24         35.3350   -22.5420  -107.7580 hc         1 V62       0.054200
     55 H25         36.7750   -21.8430  -107.0400 hc         1 V62       0.054200
     56 H26         36.9130   -25.2220  -101.1930 hn         1 V62       0.315500
     57 H27         35.2180   -27.3980  -102.1920 h1         1 V62       0.053200
     58 H28         35.9200   -27.2120  -100.5970 h1         1 V62       0.053200
     59 H29         32.1970   -26.6920  -100.0760 h1         1 V62       0.055200
     60 H30         32.9150   -27.8730  -101.1520 h1         1 V62       0.055200
     61 H31         34.3350   -30.4130   -97.4250 h1         1 V62       0.067200
     62 H32         35.7180   -29.4120   -97.9080 h1         1 V62       0.067200
     63 N5          35.6020   -22.9090  -104.9280 nu         1 V62      -0.913100
     64 C10         39.4560   -19.9490  -105.1400 c3         1 V62       0.288100
     65 BR1         38.6490   -17.8500  -107.3700 br         1 V62      -0.099100
     66 H3          39.1040   -20.3970  -106.0720 h1         1 V62       0.070200
     67 H4          40.4210   -19.4890  -105.3610 h1         1 V62       0.070200
     68 H8          35.0290   -23.7280  -104.7880 hn         1 V62       0.532000
@<TRIPOS>BOND
     1     1    17 ar  
     2     1    19 ar  
     3     1    26 1   
     4     2     5 ar  
     5     2     7 1   
     6     2    18 ar  
     7     3     6 1   
     8     3     8 1   
     9     3    30 1   
    10     4    29 1   
    11     4    30 1   
    12     4    34 1   
    13     4    35 1   
    14     5    17 ar  
    15     6    33 1   
    16     6    36 1   
    17     6    37 1   
    18     7    38 1   
    19     7    64 1   
    20     8    31 2   
    21     8    32 1   
    22     9    10 ar  
    23     9    16 ar  
    24     9    65 1   
    25    10    11 ar  
    26    10    39 1   
    27    11    12 1   
    28    11    13 ar  
    29    12    40 1   
    30    12    41 1   
    31    12    42 1   
    32    13    14 1   
    33    13    15 ar  
    34    15    16 ar  
    35    15    43 1   
    36    16    64 1   
    37    17    44 1   
    38    18    19 ar  
    39    19    63 1   
    40    20    21 1   
    41    20    25 1   
    42    20    45 1   
    43    20    63 1   
    44    21    22 1   
    45    21    46 1   
    46    21    47 1   
    47    22    23 1   
    48    22    48 1   
    49    22    49 1   
    50    23    24 1   
    51    23    50 1   
    52    23    51 1   
    53    24    25 1   
    54    24    52 1   
    55    24    53 1   
    56    25    54 1   
    57    25    55 1   
    58    26    27 2   
    59    26    28 1   
    60    28    29 1   
    61    28    56 1   
    62    29    57 1   
    63    29    58 1   
    64    30    59 1   
    65    30    60 1   
    66    32    33 1   
    67    33    61 1   
    68    33    62 1   
    69    63    68 1   
    70    64    66 1   
    71    64    67 1   
@<TRIPOS>SUBSTRUCTURE
     1 V62         1 TEMP              0 ****  ****    0 ROOT
