@<TRIPOS>MOLECULE
V62
   68    71     1     0     0
SMALL
No Charge or Current Charge


@<TRIPOS>ATOM
      1 C7          36.9180   -23.8180  -103.2250 ca         1 V62      -0.409600
      2 C9          38.7790   -21.9610  -103.7720 ca         1 V62       0.428900
      3 N1          33.7030   -28.1970   -99.0800 n          1 V62      -0.455800
      4 C2          34.1030   -26.1260  -100.4670 c3         1 V62      -0.124400
      5 N2          39.0210   -22.7550  -102.7260 nb         1 V62      -0.289000
      6 C4          34.1730   -29.5200   -99.4980 c5         1 V62       0.067000
      7 N3          39.7460   -21.0030  -104.0190 nu         1 V62      -0.929100
      8 C6          33.7020   -28.0320   -97.7000 c          1 V62       0.691100
      9 C17         38.2630   -18.0470  -105.9350 ca         1 V62      -0.005900
     10 C16         37.2620   -17.0740  -105.7680 ca         1 V62      -0.089000
     11 C14         36.6170   -16.9100  -104.5290 ca         1 V62      -0.048300
     12 C15         35.5300   -15.8520  -104.3750 c3         1 V62      -0.050800
     13 C13         36.9990   -17.7310  -103.4490 ca         1 V62      -0.009900
     14 Br          36.1590   -17.5680  -101.7310 br         1 V62      -0.093100
     15 C12         38.0060   -18.6980  -103.6110 ca         1 V62      -0.066000
     16 C11         38.6410   -18.8840  -104.8600 ca         1 V62      -0.066300
     17 C8          38.0900   -23.6850  -102.4550 ca         1 V62       0.202900
     18 N4          37.7110   -21.9960  -104.5750 nb         1 V62      -0.334000
     19 C18         36.7780   -22.9170  -104.2980 ca         1 V62       0.470900
     20 C19         35.0080   -21.8290  -105.8070 c6         1 V62       0.255500
     21 C24         34.8110   -20.5940  -104.8880 c6         1 V62      -0.086900
     22 C23         33.9190   -19.5170  -105.5700 c6         1 V62      -0.072400
     23 C22         34.0060   -19.5390  -107.1240 c6         1 V62      -0.077400
     24 C21         35.3950   -20.0090  -107.6180 c6         1 V62      -0.072400
     25 C20         35.7310   -21.4500  -107.1350 c6         1 V62      -0.086900
     26 C           35.8910   -24.8630  -102.8970 c          1 V62       0.643700
     27 O           34.8770   -25.0280  -103.5600 o          1 V62      -0.648100
     28 N           36.1550   -25.6470  -101.7990 ns         1 V62      -0.493900
     29 C1          35.2730   -26.7000  -101.2900 c3         1 V62       0.105000
     30 C3          33.1020   -27.1910   -99.9760 c3         1 V62       0.133000
     31 O2          33.2510   -27.0750   -97.0900 o          1 V62      -0.534000
     32 O1          34.1890   -29.1660   -97.1250 os         1 V62      -0.415100
     33 C5          34.7490   -30.0290   -98.1470 c5         1 V62       0.141600
     34 H1          34.5010   -25.5810   -99.6020 hc         1 V62       0.065700
     35 H2          33.5570   -25.3970  -101.0770 hc         1 V62       0.065700
     36 H5          33.3410   -30.1460   -99.8470 h1         1 V62       0.057200
     37 H6          34.9380   -29.4710  -100.2840 h1         1 V62       0.057200
     38 H7          40.5520   -21.0340  -103.3930 hn         1 V62       0.514000
     39 H9          36.9860   -16.4460  -106.6120 ha         1 V62       0.131000
     40 H10         34.5860   -16.2990  -104.0420 hc         1 V62       0.053033
     41 H11         35.8220   -15.0930  -103.6400 hc         1 V62       0.053033
     42 H12         35.3290   -15.3330  -105.3200 hc         1 V62       0.053033
     43 H13         38.2800   -19.3090  -102.7550 ha         1 V62       0.140000
     44 H14         38.3050   -24.3240  -101.6010 h4         1 V62       0.014100
     45 H15         33.9980   -22.1630  -106.0920 h1         1 V62       0.046700
     46 H16         34.3640   -20.8920  -103.9300 hc         1 V62       0.054200
     47 H17         35.7850   -20.1480  -104.6510 hc         1 V62       0.054200
     48 H18         34.2090   -18.5260  -105.1960 hc         1 V62       0.040450
     49 H19         32.8720   -19.6570  -105.2700 hc         1 V62       0.040450
     50 H20         33.7810   -18.5400  -107.5230 hc         1 V62       0.037700
     51 H21         33.2340   -20.2100  -107.5280 hc         1 V62       0.037700
     52 H22         36.1560   -19.3130  -107.2450 hc         1 V62       0.040450
     53 H23         35.4470   -19.9600  -108.7140 hc         1 V62       0.040450
     54 H24         35.4440   -22.1750  -107.9080 hc         1 V62       0.054200
     55 H25         36.8200   -21.5370  -107.0340 hc         1 V62       0.054200
     56 H26         37.0140   -25.4590  -101.3010 hn         1 V62       0.315500
     57 H27         34.8830   -27.2820  -102.1360 h1         1 V62       0.053200
     58 H28         35.8710   -27.3730  -100.6620 h1         1 V62       0.053200
     59 H29         32.2710   -26.6930   -99.4580 h1         1 V62       0.055200
     60 H30         32.6750   -27.7070  -100.8460 h1         1 V62       0.055200
     61 H31         34.4940   -31.0770   -97.9410 h1         1 V62       0.067200
     62 H32         35.8420   -29.9240   -98.1290 h1         1 V62       0.067200
     63 N5          35.6610   -22.9590  -105.1170 nu         1 V62      -0.913100
     64 C10         39.7320   -19.9510  -105.0580 c3         1 V62       0.288100
     65 Br1         39.0950   -18.1940  -107.6600 br         1 V62      -0.099100
     66 H3          39.5970   -20.4290  -106.0390 h1         1 V62       0.070200
     67 H4          40.7050   -19.4410  -105.0820 h1         1 V62       0.070200
     68 H8          35.0480   -23.7320  -104.8300 hn         1 V62       0.532000
@<TRIPOS>BOND
     1     1    17 ar  
     2     1    19 ar  
     3     1    26 1   
     4     2     5 ar  
     5     2     7 1   
     6     2    18 ar  
     7     3     6 1   
     8     3     8 1   
     9     3    30 1   
    10     4    29 1   
    11     4    30 1   
    12     4    34 1   
    13     4    35 1   
    14     5    17 ar  
    15     6    33 1   
    16     6    36 1   
    17     6    37 1   
    18     7    38 1   
    19     7    64 1   
    20     8    31 2   
    21     8    32 1   
    22     9    10 ar  
    23     9    16 ar  
    24     9    65 1   
    25    10    11 ar  
    26    10    39 1   
    27    11    12 1   
    28    11    13 ar  
    29    12    40 1   
    30    12    41 1   
    31    12    42 1   
    32    13    14 1   
    33    13    15 ar  
    34    15    16 ar  
    35    15    43 1   
    36    16    64 1   
    37    17    44 1   
    38    18    19 ar  
    39    19    63 1   
    40    20    21 1   
    41    20    25 1   
    42    20    45 1   
    43    20    63 1   
    44    21    22 1   
    45    21    46 1   
    46    21    47 1   
    47    22    23 1   
    48    22    48 1   
    49    22    49 1   
    50    23    24 1   
    51    23    50 1   
    52    23    51 1   
    53    24    25 1   
    54    24    52 1   
    55    24    53 1   
    56    25    54 1   
    57    25    55 1   
    58    26    27 2   
    59    26    28 1   
    60    28    29 1   
    61    28    56 1   
    62    29    57 1   
    63    29    58 1   
    64    30    59 1   
    65    30    60 1   
    66    32    33 1   
    67    33    61 1   
    68    33    62 1   
    69    63    68 1   
    70    64    66 1   
    71    64    67 1   
@<TRIPOS>SUBSTRUCTURE
     1 V62         1 TEMP              0 ****  ****    0 ROOT
