@<TRIPOS>MOLECULE
V63
   34    36     1     0     0
SMALL
No Charge or Current Charge


@<TRIPOS>ATOM
      1 C3           3.3360     1.0880    -0.4020 ca         1 V63      -0.057000
      2 C11          3.4200    -1.5750     0.4870 ca         1 V63      -0.128500
      3 C1           2.2050    -0.8670     0.5060 ca         1 V63      -0.057000
      4 C13         -1.8800    -1.3780    -1.2760 c5         1 V63      -0.104900
      5 C10         -2.4560     0.2790     1.5260 c6         1 V63      -0.073900
      6 C7           4.5920    -0.9550     0.0260 ca         1 V63      -0.082000
      7 C8          -2.1640     1.2060    -0.8380 c6         1 V63      -0.073900
      8 C6          -2.8110    -0.1300    -1.3070 c5         1 V63       0.147500
      9 C2           4.5480     0.3760    -0.4180 ca         1 V63      -0.128500
     10 C4          -3.0820    -0.9650     0.8280 c5         1 V63       0.147500
     11 C14          2.1490     0.4750     0.0610 ca         1 V63      -0.143600
     12 C80         -1.5430     1.1090     0.5860 c6         1 V63       0.187300
     13 O15          0.7760     2.4180    -0.3050 o          1 V63      -0.497000
     14 N           -3.8620    -0.4980    -0.3360 n7         1 V63      -0.829400
     15 O17         -0.2120     0.5470     0.5620 os         1 V63      -0.452100
     16 H1           1.3110    -1.3710     0.8670 ha         1 V63       0.131500
     17 H11          3.4510    -2.6060     0.8320 ha         1 V63       0.117500
     18 H2           5.4550     0.8590    -0.7760 ha         1 V63       0.117500
     19 H3           3.3220     2.1190    -0.7510 ha         1 V63       0.131500
     20 H7           5.5310    -1.5040     0.0130 ha         1 V63       0.115000
     21 H4          -3.7210    -1.4800     1.5590 h1         1 V63       0.063200
     22 H101        -3.2670     0.9210     1.8970 hc         1 V63       0.060450
     23 H102        -1.8900    -0.0360     2.4130 hc         1 V63       0.060450
     24 H           -4.3840    -1.2970    -0.7140 hn         1 V63       0.401000
     25 H6          -3.2310     0.0280    -2.3110 h1         1 V63       0.063200
     26 H81C        -1.4130     1.5270    -1.5700 hc         1 V63       0.060450
     27 H82C        -2.9340     1.9880    -0.8370 hc         1 V63       0.060450
     28 H131        -2.1890    -2.1140    -2.0270 hc         1 V63       0.048450
     29 H132        -0.8370    -1.1250    -1.4950 hc         1 V63       0.048450
     30 H80         -1.4620     2.1220     1.0080 h1         1 V63       0.065700
     31 C5           0.8530     1.2540     0.0670 c          1 V63       0.609700
     32 C12         -2.0740    -1.9510     0.1690 c5         1 V63      -0.104900
     33 H121        -2.4910    -2.9640     0.1290 hc         1 V63       0.048450
     34 H122        -1.1340    -2.0210     0.7280 hc         1 V63       0.048450
@<TRIPOS>BOND
     1     1     9 ar  
     2     1    11 ar  
     3     1    19 1   
     4     2     3 ar  
     5     2     6 ar  
     6     2    17 1   
     7     3    11 ar  
     8     3    16 1   
     9     4     8 1   
    10     4    28 1   
    11     4    29 1   
    12     4    32 1   
    13     5    10 1   
    14     5    12 1   
    15     5    22 1   
    16     5    23 1   
    17     6     9 ar  
    18     6    20 1   
    19     7     8 1   
    20     7    12 1   
    21     7    26 1   
    22     7    27 1   
    23     8    14 1   
    24     8    25 1   
    25     9    18 1   
    26    10    14 1   
    27    10    21 1   
    28    10    32 1   
    29    11    31 1   
    30    12    15 1   
    31    12    30 1   
    32    13    31 2   
    33    14    24 1   
    34    15    31 1   
    35    32    33 1   
    36    32    34 1   
@<TRIPOS>SUBSTRUCTURE
     1 V63         1 TEMP              0 ****  ****    0 ROOT
