@<TRIPOS>MOLECULE
V63
   34    36     1     0     0
SMALL
abcg2


@<TRIPOS>ATOM
      1 C3           3.2570     1.0990    -0.2710 ca         1 V63      -0.057000
      2 C11          3.2920    -1.6090     0.3350 ca         1 V63      -0.128500
      3 C1           2.0990    -0.9050     0.3950 ca         1 V63      -0.057000
      4 C13         -1.7880    -1.3810    -1.2100 c5         1 V63      -0.104900
      5 C10         -2.3900     0.3100     1.4780 c6         1 V63      -0.073900
      6 C7           4.4660    -0.9630    -0.0260 ca         1 V63      -0.082000
      7 C8          -2.1270     1.1460    -0.8980 c6         1 V63      -0.073900
      8 C6          -2.7640    -0.1860    -1.2920 c5         1 V63       0.147500
      9 C2           4.4470     0.3930    -0.3290 ca         1 V63      -0.128500
     10 C4          -3.0080    -0.9320     0.8370 c5         1 V63       0.147500
     11 C14          2.0750     0.4560     0.0920 ca         1 V63      -0.143600
     12 C80         -1.5370     1.1290     0.5130 c6         1 V63       0.187300
     13 O15          0.7690     2.4260    -0.1620 o          1 V63      -0.497000
     14 N           -3.8050    -0.4770    -0.3040 n7         1 V63      -0.829400
     15 O17         -0.2210     0.5340     0.5060 os         1 V63      -0.452100
     16 H1           1.1920    -1.4230     0.6760 ha         1 V63       0.131500
     17 H11          3.3030    -2.6660     0.5690 ha         1 V63       0.117500
     18 H2           5.3610     0.8990    -0.6110 ha         1 V63       0.117500
     19 H3           3.2460     2.1550    -0.5090 ha         1 V63       0.131500
     20 H7           5.3960    -1.5150    -0.0700 ha         1 V63       0.115000
     21 H4          -3.6470    -1.4260     1.5720 h1         1 V63       0.063200
     22 H101        -3.2050     0.9490     1.8250 hc         1 V63       0.060450
     23 H102        -1.8030     0.0470     2.3600 hc         1 V63       0.060450
     24 H           -4.3640    -1.2540    -0.6410 hn         1 V63       0.401000
     25 H6          -3.2050    -0.0850    -2.2850 h1         1 V63       0.063200
     26 H81C        -1.3720     1.4480    -1.6260 hc         1 V63       0.060450
     27 H82C        -2.9050     1.9140    -0.9220 hc         1 V63       0.060450
     28 H131        -2.0830    -2.1460    -1.9310 hc         1 V63       0.048450
     29 H132        -0.7580    -1.1100    -1.4430 hc         1 V63       0.048450
     30 H80         -1.4450     2.1500     0.8880 h1         1 V63       0.065700
     31 C5           0.8200     1.2530     0.1270 c          1 V63       0.609700
     32 C12         -1.9690    -1.8990     0.2330 c5         1 V63      -0.104900
     33 H121        -2.3770    -2.9120     0.2260 hc         1 V63       0.048450
     34 H122        -1.0400    -1.9390     0.8000 hc         1 V63       0.048450
@<TRIPOS>BOND
     1     1     9 ar  
     2     1    11 ar  
     3     1    19 1   
     4     2     3 ar  
     5     2     6 ar  
     6     2    17 1   
     7     3    11 ar  
     8     3    16 1   
     9     4     8 1   
    10     4    28 1   
    11     4    29 1   
    12     4    32 1   
    13     5    10 1   
    14     5    12 1   
    15     5    22 1   
    16     5    23 1   
    17     6     9 ar  
    18     6    20 1   
    19     7     8 1   
    20     7    12 1   
    21     7    26 1   
    22     7    27 1   
    23     8    14 1   
    24     8    25 1   
    25     9    18 1   
    26    10    14 1   
    27    10    21 1   
    28    10    32 1   
    29    11    31 1   
    30    12    15 1   
    31    12    30 1   
    32    13    31 2   
    33    14    24 1   
    34    15    31 1   
    35    32    33 1   
    36    32    34 1   
@<TRIPOS>SUBSTRUCTURE
     1 V63         1 TEMP              0 ****  ****    0 ROOT
