@<TRIPOS>MOLECULE
V64
   90    92     1     0     0
SMALL
No Charge or Current Charge


@<TRIPOS>ATOM
      1 O42          4.1190    -0.1660    -0.2600 o          1 V64      -0.532000
      2 C36          3.0050    -0.6320    -0.1040 c          1 V64       0.648100
      3 O37          2.3720    -0.9200     1.0710 os         1 V64      -0.477100
      4 C38          2.9940    -0.7300     2.3600 c3         1 V64       0.227000
      5 C39          1.9210    -1.1880     3.3700 c3         1 V64      -0.109767
      6 C40          4.2490    -1.6320     2.4680 c3         1 V64      -0.109767
      7 C41          3.3030     0.7750     2.5680 c3         1 V64      -0.109767
      8 C02          1.7180     0.8670    -2.9230 c          1 V64       0.605100
      9 N18         -2.0620    -0.2870     2.0290 ns         1 V64      -0.518900
     10 C27          2.3100    -0.5320    -2.5390 c3         1 V64       0.058700
     11 C28          1.7080    -1.6800    -3.3990 c3         1 V64      -0.099400
     12 C29          2.3220    -3.0920    -3.1610 c3         1 V64      -0.098700
     13 N35          2.0920    -0.8100    -1.0990 ns         1 V64      -0.525900
     14 N1           2.9950    -4.3070    -1.0710 nc         1 V64      -0.351000
     15 N2           2.3830    -4.5860     0.1310 nc         1 V64      -0.356000
     16 C4           1.1540    -4.1060     0.0160 cd         1 V64       0.422300
     17 O1           0.8760    -3.5370    -1.1810 os         1 V64      -0.296000
     18 C6           2.0740    -3.6890    -1.7950 cd         1 V64       0.415300
     19 C1           0.1350    -4.1010     1.1290 c3         1 V64      -0.102700
     20 C2          -0.7920    -2.8590     1.1230 c3         1 V64      -0.078400
     21 C3          -1.6500    -2.7230     2.4060 c3         1 V64      -0.097400
     22 C5          -2.6820    -1.5740     2.3540 c3         1 V64       0.108000
     23 N13         -0.8640     4.0200    -0.0740 ns         1 V64      -0.480900
     24 C14         -1.3300     4.3540     1.2910 c3         1 V64       0.120700
     25 C15         -1.9930     3.1290     1.9910 c3         1 V64      -0.079400
     26 C16         -1.0660     1.9220     2.3110 c3         1 V64      -0.160400
     27 C17         -1.8340     0.7420     2.9130 c          1 V64       0.599100
     28 O23         -2.1860     0.7050     4.0820 o          1 V64      -0.604100
     29 C24         -0.2870     5.0920     2.1850 c3         1 V64       0.155600
     30 O25          0.1860     6.2900     1.5440 oh         1 V64      -0.657000
     31 N03          1.2340     1.5920    -1.8550 ns         1 V64      -0.505900
     32 C04          0.4060     2.8150    -1.8800 c3         1 V64       0.042700
     33 C12          0.2960     3.3430    -0.4100 c          1 V64       0.597100
     34 O26          1.1780     3.1160     0.4090 o          1 V64      -0.636100
     35 C05         -0.9540     2.6360    -2.6330 c3         1 V64      -0.092400
     36 C06         -2.0230     1.6400    -2.0520 c6         1 V64      -0.062700
     37 C07         -1.6050     0.1420    -2.1670 c6         1 V64      -0.074900
     38 C08         -2.7170    -0.8230    -1.6870 c6         1 V64      -0.075400
     39 C09         -4.0530    -0.5640    -2.4180 c6         1 V64      -0.075400
     40 C10         -4.4860     0.9090    -2.2540 c6         1 V64      -0.075400
     41 C11         -3.3860     1.8680    -2.7680 c6         1 V64      -0.074900
     42 H36          1.6800    -2.2470     3.2290 hc         1 V64       0.050589
     43 H37          2.2730    -1.0560     4.4000 hc         1 V64       0.050589
     44 H38          0.9980    -0.6080     3.2490 hc         1 V64       0.050589
     45 H39          5.0760    -1.2580     1.8560 hc         1 V64       0.050589
     46 H40          4.6020    -1.6720     3.5050 hc         1 V64       0.050589
     47 H41          4.0180    -2.6560     2.1490 hc         1 V64       0.050589
     48 H42          2.4250     1.3870     2.3320 hc         1 V64       0.050589
     49 H43          3.5780     0.9670     3.6120 hc         1 V64       0.050589
     50 H44          4.1380     1.1130     1.9460 hc         1 V64       0.050589
     51 H23         -3.2060    -1.5070     3.3160 h1         1 V64       0.055200
     52 H24         -3.4320    -1.7980     1.5840 h1         1 V64       0.055200
     53 H29          3.3890    -0.4710    -2.7290 h1         1 V64       0.097700
     54 H30          0.6230    -1.7260    -3.2400 hc         1 V64       0.069200
     55 H31          1.8490    -1.4280    -4.4580 hc         1 V64       0.069200
     56 H32          1.9160    -3.7780    -3.9140 hc         1 V64       0.079700
     57 H33          3.4010    -3.0430    -3.3490 hc         1 V64       0.079700
     58 H35          1.2090    -1.2080    -0.8040 hn         1 V64       0.331500
     59 H34         -0.4780    -5.0070     1.0640 hc         1 V64       0.074200
     60 H45          0.6580    -4.1510     2.0910 hc         1 V64       0.074200
     61 H46         -0.1760    -1.9590     1.0090 hc         1 V64       0.055200
     62 H47         -1.4510    -2.9110     0.2470 hc         1 V64       0.055200
     63 H48         -2.1870    -3.6630     2.5860 hc         1 V64       0.049200
     64 H49         -0.9890    -2.5660     3.2670 hc         1 V64       0.049200
     65 H16         -1.5110     4.1870    -0.8330 hn         1 V64       0.319500
     66 H17         -2.1430     5.0780     1.1460 h1         1 V64       0.059700
     67 H18         -2.4580     3.4710     2.9250 hc         1 V64       0.062700
     68 H19         -2.8180     2.7770     1.3570 hc         1 V64       0.062700
     69 H20         -0.6030     1.5800     1.3820 hc         1 V64       0.067200
     70 H21         -0.2950     2.2400     3.0220 hc         1 V64       0.067200
     71 H26         -0.7680     5.3470     3.1390 h1         1 V64       0.034200
     72 H27          0.5510     4.4250     2.4210 h1         1 V64       0.034200
     73 H28          0.8900     6.6640     2.1190 ho         1 V64       0.449000
     74 H1           1.4280     1.1890    -0.9450 hn         1 V64       0.344500
     75 H2           0.9740     3.5840    -2.4210 h1         1 V64       0.080700
     76 H3          -1.4060     3.6320    -2.7210 hc         1 V64       0.060200
     77 H4          -0.7380     2.3510    -3.6690 hc         1 V64       0.060200
     78 H5          -2.1570     1.8760    -0.9880 hc         1 V64       0.042700
     79 H7          -1.3420    -0.0920    -3.2080 hc         1 V64       0.041950
     80 H6          -0.7130    -0.0540    -1.5630 hc         1 V64       0.041950
     81 H9          -2.4020    -1.8630    -1.8470 hc         1 V64       0.039450
     82 H8          -2.8690    -0.7050    -0.6070 hc         1 V64       0.039450
     83 H11         -3.9460    -0.8060    -3.4850 hc         1 V64       0.040200
     84 H10         -4.8310    -1.2300    -2.0220 hc         1 V64       0.040200
     85 H13         -5.4210     1.0860    -2.8030 hc         1 V64       0.039450
     86 H12         -4.6990     1.1200    -1.1960 hc         1 V64       0.039450
     87 H14         -3.7180     2.9050    -2.6230 hc         1 V64       0.041950
     88 H15         -3.2640     1.7320    -3.8520 hc         1 V64       0.041950
     89 H22         -1.7310    -0.1470     1.0840 hn         1 V64       0.311500
     90 O01          1.6440     1.2750    -4.0750 o          1 V64      -0.592100
@<TRIPOS>BOND
     1     1     2 2   
     2     2     3 1   
     3     2    13 1   
     4     3     4 1   
     5     4     5 1   
     6     4     6 1   
     7     4     7 1   
     8     5    42 1   
     9     5    43 1   
    10     5    44 1   
    11     6    45 1   
    12     6    46 1   
    13     6    47 1   
    14     7    48 1   
    15     7    49 1   
    16     7    50 1   
    17     8    10 1   
    18     8    31 1   
    19     8    90 2   
    20     9    22 1   
    21     9    27 1   
    22     9    89 1   
    23    10    11 1   
    24    10    13 1   
    25    10    53 1   
    26    11    12 1   
    27    11    54 1   
    28    11    55 1   
    29    12    18 1   
    30    12    56 1   
    31    12    57 1   
    32    13    58 1   
    33    14    15 1   
    34    14    18 2   
    35    15    16 2   
    36    16    17 1   
    37    16    19 1   
    38    17    18 1   
    39    19    20 1   
    40    19    59 1   
    41    19    60 1   
    42    20    21 1   
    43    20    61 1   
    44    20    62 1   
    45    21    22 1   
    46    21    63 1   
    47    21    64 1   
    48    22    51 1   
    49    22    52 1   
    50    23    24 1   
    51    23    33 1   
    52    23    65 1   
    53    24    25 1   
    54    24    29 1   
    55    24    66 1   
    56    25    26 1   
    57    25    67 1   
    58    25    68 1   
    59    26    27 1   
    60    26    69 1   
    61    26    70 1   
    62    27    28 2   
    63    29    30 1   
    64    29    71 1   
    65    29    72 1   
    66    30    73 1   
    67    31    32 1   
    68    31    74 1   
    69    32    33 1   
    70    32    35 1   
    71    32    75 1   
    72    33    34 2   
    73    35    36 1   
    74    35    76 1   
    75    35    77 1   
    76    36    37 1   
    77    36    41 1   
    78    36    78 1   
    79    37    38 1   
    80    37    79 1   
    81    37    80 1   
    82    38    39 1   
    83    38    81 1   
    84    38    82 1   
    85    39    40 1   
    86    39    83 1   
    87    39    84 1   
    88    40    41 1   
    89    40    85 1   
    90    40    86 1   
    91    41    87 1   
    92    41    88 1   
@<TRIPOS>SUBSTRUCTURE
     1 V64         1 TEMP              0 ****  ****    0 ROOT
