@<TRIPOS>MOLECULE
V64
   90    92     1     0     0
SMALL
abcg2


@<TRIPOS>ATOM
      1 O42          4.8960     0.6930    -0.9310 o          1 V64      -0.532000
      2 C36          4.3030     0.0280    -0.1080 c          1 V64       0.648100
      3 O37          4.6010    -0.0910     1.1790 os         1 V64      -0.477100
      4 C38          5.6970     0.6360     1.8020 c3         1 V64       0.227000
      5 C39          5.5810     0.2400     3.2680 c3         1 V64      -0.109767
      6 C40          7.0350     0.1720     1.2420 c3         1 V64      -0.109767
      7 C41          5.5080     2.1410     1.6580 c3         1 V64      -0.109767
      8 C02          2.1480     0.6730    -2.1750 c          1 V64       0.605100
      9 N18         -3.6930    -0.4340     2.2590 ns         1 V64      -0.518900
     10 C27          2.6740    -0.7090    -1.7510 c3         1 V64       0.058700
     11 C28          1.4890    -1.6730    -1.8400 c3         1 V64      -0.099400
     12 C29          1.8070    -3.1360    -1.5080 c3         1 V64      -0.098700
     13 N35          3.2050    -0.7060    -0.4110 ns         1 V64      -0.525900
     14 N1          -0.0060    -4.7970    -2.0120 nc         1 V64      -0.351000
     15 N2          -1.1920    -5.1210    -1.3940 nc         1 V64      -0.356000
     16 C4          -1.2760    -4.3910    -0.3410 cd         1 V64       0.422300
     17 O1          -0.2010    -3.5910    -0.2180 os         1 V64      -0.296000
     18 C6           0.5510    -3.8910    -1.2930 cd         1 V64       0.415300
     19 C1          -2.3440    -4.3190     0.6830 c3         1 V64      -0.102700
     20 C2          -2.9780    -2.9290     0.7840 c3         1 V64      -0.078400
     21 C3          -3.9690    -2.8460     1.9410 c3         1 V64      -0.097400
     22 C5          -4.6600    -1.4940     2.0670 c3         1 V64       0.108000
     23 N13         -0.8570     3.6220     0.2400 ns         1 V64      -0.480900
     24 C14         -1.5840     4.0020     1.4490 c3         1 V64       0.120700
     25 C15         -2.8500     3.1660     1.6690 c3         1 V64      -0.079400
     26 C16         -2.6240     1.6870     1.9390 c3         1 V64      -0.160400
     27 C17         -3.8880     0.8490     1.9010 c          1 V64       0.599100
     28 O23         -4.9710     1.2750     1.5270 o          1 V64      -0.604100
     29 C24         -0.7140     4.0950     2.6950 c3         1 V64       0.155600
     30 O25          0.3910     4.9190     2.4130 oh         1 V64      -0.657000
     31 N03          1.4820     1.3010    -1.2000 ns         1 V64      -0.505900
     32 C04          0.6130     2.4460    -1.3150 c3         1 V64       0.042700
     33 C12          0.0500     2.6520     0.1080 c          1 V64       0.597100
     34 O26          0.4320     1.9370     1.0260 o          1 V64      -0.636100
     35 C05         -0.4920     2.2520    -2.3670 c3         1 V64      -0.092400
     36 C06         -1.3810     1.0180    -2.1350 c6         1 V64      -0.062700
     37 C07         -1.3520     0.0540    -3.3230 c6         1 V64      -0.074900
     38 C08         -2.1690    -1.2030    -3.0500 c6         1 V64      -0.075400
     39 C09         -3.6100    -0.8590    -2.6910 c6         1 V64      -0.075400
     40 C10         -3.6690     0.1410    -1.5420 c6         1 V64      -0.075400
     41 C11         -2.8330     1.3830    -1.8260 c6         1 V64      -0.074900
     42 H36          5.6770    -0.8390     3.3970 hc         1 V64       0.050589
     43 H37          6.3750     0.7160     3.8420 hc         1 V64       0.050589
     44 H38          4.6250     0.5540     3.6900 hc         1 V64       0.050589
     45 H39          7.1620     0.4360     0.1940 hc         1 V64       0.050589
     46 H40          7.8430     0.6440     1.8030 hc         1 V64       0.050589
     47 H41          7.1490    -0.9090     1.3460 hc         1 V64       0.050589
     48 H42          4.5110     2.4420     1.9860 hc         1 V64       0.050589
     49 H43          6.2310     2.6520     2.2940 hc         1 V64       0.050589
     50 H44          5.6590     2.4880     0.6380 hc         1 V64       0.050589
     51 H23         -5.3730    -1.5290     2.8950 h1         1 V64       0.055200
     52 H24         -5.2340    -1.2860     1.1620 h1         1 V64       0.055200
     53 H29          3.4460    -1.0010    -2.4670 h1         1 V64       0.097700
     54 H30          0.6970    -1.3030    -1.1840 hc         1 V64       0.069200
     55 H31          1.0880    -1.6290    -2.8530 hc         1 V64       0.069200
     56 H32          2.3580    -3.6020    -2.3240 hc         1 V64       0.079700
     57 H33          2.4270    -3.2230    -0.6130 hc         1 V64       0.079700
     58 H35          2.7560    -1.2400     0.3160 hn         1 V64       0.331500
     59 H34         -3.0970    -5.0670     0.4340 hc         1 V64       0.074200
     60 H45         -1.9200    -4.6020     1.6510 hc         1 V64       0.074200
     61 H46         -2.1930    -2.1790     0.9140 hc         1 V64       0.055200
     62 H47         -3.4840    -2.6900    -0.1570 hc         1 V64       0.055200
     63 H48         -4.7440    -3.6060     1.8180 hc         1 V64       0.049200
     64 H49         -3.4560    -3.0830     2.8790 hc         1 V64       0.049200
     65 H16         -1.0920     4.1520    -0.5830 hn         1 V64       0.319500
     66 H17         -1.9300     5.0170     1.2400 h1         1 V64       0.059700
     67 H18         -3.4070     3.6150     2.4960 hc         1 V64       0.062700
     68 H19         -3.4820     3.2820     0.7870 hc         1 V64       0.062700
     69 H20         -1.9620     1.2560     1.1850 hc         1 V64       0.067200
     70 H21         -2.1180     1.5280     2.8950 hc         1 V64       0.067200
     71 H26         -1.3490     4.5260     3.4810 h1         1 V64       0.034200
     72 H27         -0.4030     3.1070     3.0390 h1         1 V64       0.034200
     73 H28          0.9710     4.9100     3.1790 ho         1 V64       0.449000
     74 H1           1.5040     0.9080    -0.2670 hn         1 V64       0.344500
     75 H2           1.1860     3.3430    -1.5790 h1         1 V64       0.080700
     76 H3          -1.0980     3.1610    -2.4100 hc         1 V64       0.060200
     77 H4          -0.0060     2.1940    -3.3420 hc         1 V64       0.060200
     78 H5          -0.9950     0.4670    -1.2650 hc         1 V64       0.042700
     79 H7          -1.7540     0.5680    -4.2050 hc         1 V64       0.041950
     80 H6          -0.3230    -0.2100    -3.5740 hc         1 V64       0.041950
     81 H9          -2.1360    -1.8720    -3.9130 hc         1 V64       0.039450
     82 H8          -1.7100    -1.7540    -2.2180 hc         1 V64       0.039450
     83 H11         -4.1080    -0.4330    -3.5690 hc         1 V64       0.040200
     84 H10         -4.1640    -1.7650    -2.4310 hc         1 V64       0.040200
     85 H13         -4.7020     0.4200    -1.3260 hc         1 V64       0.039450
     86 H12         -3.2870    -0.3370    -0.6320 hc         1 V64       0.039450
     87 H14         -2.8790     2.0660    -0.9760 hc         1 V64       0.041950
     88 H15         -3.2540     1.9270    -2.6800 hc         1 V64       0.041950
     89 H22         -2.7870    -0.6900     2.6170 hn         1 V64       0.311500
     90 O01          2.2600     1.0710    -3.3230 o          1 V64      -0.592100
@<TRIPOS>BOND
     1     1     2 2   
     2     2     3 1   
     3     2    13 1   
     4     3     4 1   
     5     4     5 1   
     6     4     6 1   
     7     4     7 1   
     8     5    42 1   
     9     5    43 1   
    10     5    44 1   
    11     6    45 1   
    12     6    46 1   
    13     6    47 1   
    14     7    48 1   
    15     7    49 1   
    16     7    50 1   
    17     8    10 1   
    18     8    31 1   
    19     8    90 2   
    20     9    22 1   
    21     9    27 1   
    22     9    89 1   
    23    10    11 1   
    24    10    13 1   
    25    10    53 1   
    26    11    12 1   
    27    11    54 1   
    28    11    55 1   
    29    12    18 1   
    30    12    56 1   
    31    12    57 1   
    32    13    58 1   
    33    14    15 1   
    34    14    18 2   
    35    15    16 2   
    36    16    17 1   
    37    16    19 1   
    38    17    18 1   
    39    19    20 1   
    40    19    59 1   
    41    19    60 1   
    42    20    21 1   
    43    20    61 1   
    44    20    62 1   
    45    21    22 1   
    46    21    63 1   
    47    21    64 1   
    48    22    51 1   
    49    22    52 1   
    50    23    24 1   
    51    23    33 1   
    52    23    65 1   
    53    24    25 1   
    54    24    29 1   
    55    24    66 1   
    56    25    26 1   
    57    25    67 1   
    58    25    68 1   
    59    26    27 1   
    60    26    69 1   
    61    26    70 1   
    62    27    28 2   
    63    29    30 1   
    64    29    71 1   
    65    29    72 1   
    66    30    73 1   
    67    31    32 1   
    68    31    74 1   
    69    32    33 1   
    70    32    35 1   
    71    32    75 1   
    72    33    34 2   
    73    35    36 1   
    74    35    76 1   
    75    35    77 1   
    76    36    37 1   
    77    36    41 1   
    78    36    78 1   
    79    37    38 1   
    80    37    79 1   
    81    37    80 1   
    82    38    39 1   
    83    38    81 1   
    84    38    82 1   
    85    39    40 1   
    86    39    83 1   
    87    39    84 1   
    88    40    41 1   
    89    40    85 1   
    90    40    86 1   
    91    41    87 1   
    92    41    88 1   
@<TRIPOS>SUBSTRUCTURE
     1 V64         1 TEMP              0 ****  ****    0 ROOT
