@<TRIPOS>MOLECULE
V65
   57    60     1     0     0
SMALL
No Charge or Current Charge


@<TRIPOS>ATOM
      1 C1          -3.2090    -2.9390     1.3660 c          1 V65       0.516600
      2 N2          -4.4230    -2.7140     1.9310 nt         1 V65      -0.593000
      3 C4          -2.5380    -1.7740     0.6390 ca         1 V65       0.162500
      4 N5          -1.3280    -1.9900     0.0750 nb         1 V65      -0.255000
      5 C6          -0.7630    -0.9420    -0.5550 ca         1 V65       0.440900
      6 N10          0.5150    -1.1100    -1.1700 nh         1 V65      -0.759300
      7 C14          1.4310    -2.2530    -0.8590 c6         1 V65       0.255500
      8 C15          0.9430    -3.6150    -1.4280 c6         1 V65      -0.090400
      9 C16          1.9960    -4.7240    -1.1740 c6         1 V65      -0.069900
     10 C17          2.3530    -4.8260     0.3300 c6         1 V65      -0.078400
     11 C18          2.8460    -3.4660     0.8890 c6         1 V65      -0.069900
     12 C19          1.7990    -2.3490     0.6480 c6         1 V65      -0.090400
     13 C12          1.1000    -0.0600    -2.0490 c3         1 V65       0.275100
     14 C22          2.2070     0.7450    -1.3720 ca         1 V65      -0.112300
     15 C23          3.5580     0.5290    -1.7180 ca         1 V65      -0.087500
     16 C24          4.5780     1.2600    -1.0840 ca         1 V65      -0.107000
     17 C25          4.2540     2.2090    -0.1010 ca         1 V65       0.126000
     18 Cl           5.5310     3.1220     0.6930 cl         1 V65      -0.204000
     19 C26          2.9130     2.4310     0.2480 ca         1 V65      -0.107000
     20 C27          1.8920     1.7010    -0.3850 ca         1 V65      -0.087500
     21 N7          -1.3380     0.2700    -0.6520 nb         1 V65      -0.368000
     22 C8          -2.5390     0.4030    -0.0670 ca         1 V65       0.451900
     23 N29         -3.1680     1.6720    -0.1380 nh         1 V65      -0.775300
     24 C30         -4.6170     1.8450     0.2450 c6         1 V65       0.190300
     25 C31         -4.9890     3.3210     0.5770 c6         1 V65       0.134100
     26 O32         -4.5470     4.2150    -0.4680 os         1 V65      -0.444000
     27 C33         -3.1150     4.1780    -0.6490 c6         1 V65       0.134100
     28 C34         -2.6370     2.7510    -1.0490 c6         1 V65       0.190300
     29 N9          -3.1790    -0.5810     0.5890 nb         1 V65      -0.338000
     30 OXT         -2.7100    -4.0510     1.4640 o          1 V65      -0.567100
     31 H21N        -4.8460    -1.8000     1.8580 hn         1 V65       0.327500
     32 H22N        -4.8930    -3.4620     2.4190 hn         1 V65       0.327500
     33 H14          2.3850    -2.0580    -1.3720 h1         1 V65       0.041700
     34 H121         1.5080    -0.5380    -2.9510 h1         1 V65       0.071200
     35 H122         0.3350     0.6340    -2.4230 h1         1 V65       0.071200
     36 H151        -0.0060    -3.9200    -0.9720 hc         1 V65       0.060950
     37 H152         0.7570    -3.5200    -2.5060 hc         1 V65       0.060950
     38 H191         2.2010    -1.3860     0.9920 hc         1 V65       0.060950
     39 H192         0.9130    -2.5550     1.2600 hc         1 V65       0.060950
     40 H161         1.6130    -5.6890    -1.5330 hc         1 V65       0.037200
     41 H162         2.9040    -4.5130    -1.7570 hc         1 V65       0.037200
     42 H171         1.4740    -5.1610     0.8980 hc         1 V65       0.045200
     43 H172         3.1280    -5.5900     0.4780 hc         1 V65       0.045200
     44 H181         3.0540    -3.5570     1.9640 hc         1 V65       0.037200
     45 H182         3.7960    -3.1920     0.4100 hc         1 V65       0.037200
     46 H23          3.8190    -0.2070    -2.4760 ha         1 V65       0.122000
     47 H27          0.8560     1.8750    -0.1040 ha         1 V65       0.122000
     48 H24          5.6170     1.0900    -1.3520 ha         1 V65       0.130000
     49 H26          2.6650     3.1650     1.0100 ha         1 V65       0.130000
     50 H301        -5.2630     1.4960    -0.5730 h1         1 V65       0.069950
     51 H302        -4.8670     1.2430     1.1310 h1         1 V65       0.069950
     52 H341        -1.5380     2.7670    -1.0460 h1         1 V65       0.069950
     53 H342        -2.9530     2.5530    -2.0840 h1         1 V65       0.069950
     54 H311        -6.0780     3.4120     0.6940 h1         1 V65       0.055450
     55 H312        -4.5210     3.6170     1.5270 h1         1 V65       0.055450
     56 H331        -2.8310     4.8980    -1.4290 h1         1 V65       0.055450
     57 H332        -2.6250     4.4840     0.2870 h1         1 V65       0.055450
@<TRIPOS>BOND
     1     1     2 1   
     2     1     3 1   
     3     1    30 2   
     4     2    31 1   
     5     2    32 1   
     6     3     4 ar  
     7     3    29 ar  
     8     4     5 ar  
     9     5     6 1   
    10     5    21 ar  
    11     6     7 1   
    12     6    13 1   
    13     7     8 1   
    14     7    12 1   
    15     7    33 1   
    16     8     9 1   
    17     8    36 1   
    18     8    37 1   
    19     9    10 1   
    20     9    40 1   
    21     9    41 1   
    22    10    11 1   
    23    10    42 1   
    24    10    43 1   
    25    11    12 1   
    26    11    44 1   
    27    11    45 1   
    28    12    38 1   
    29    12    39 1   
    30    13    14 1   
    31    13    34 1   
    32    13    35 1   
    33    14    15 ar  
    34    14    20 ar  
    35    15    16 ar  
    36    15    46 1   
    37    16    17 ar  
    38    16    48 1   
    39    17    18 1   
    40    17    19 ar  
    41    19    20 ar  
    42    19    49 1   
    43    20    47 1   
    44    21    22 ar  
    45    22    23 1   
    46    22    29 ar  
    47    23    24 1   
    48    23    28 1   
    49    24    25 1   
    50    24    50 1   
    51    24    51 1   
    52    25    26 1   
    53    25    54 1   
    54    25    55 1   
    55    26    27 1   
    56    27    28 1   
    57    27    56 1   
    58    27    57 1   
    59    28    52 1   
    60    28    53 1   
@<TRIPOS>SUBSTRUCTURE
     1 V65         1 TEMP              0 ****  ****    0 ROOT
