@<TRIPOS>MOLECULE
V65
   57    60     1     0     0
SMALL
abcg2


@<TRIPOS>ATOM
      1 C1          -2.9540    -2.7020     1.6070 c          1 V65       0.516600
      2 N2          -4.1280    -2.3830     2.1560 nt         1 V65      -0.593000
      3 C4          -2.3890    -1.6230     0.6960 ca         1 V65       0.162500
      4 N5          -1.2150    -1.8770     0.1730 nb         1 V65      -0.255000
      5 C6          -0.7340    -0.8970    -0.6140 ca         1 V65       0.440900
      6 N10          0.4750    -1.0790    -1.1720 nh         1 V65      -0.759300
      7 C14          1.3340    -2.2320    -0.8790 c6         1 V65       0.255500
      8 C15          0.7950    -3.5580    -1.4120 c6         1 V65      -0.090400
      9 C16          1.8590    -4.6450    -1.2680 c6         1 V65      -0.069900
     10 C17          2.3300    -4.7720     0.1780 c6         1 V65      -0.078400
     11 C18          2.8250    -3.4350     0.7200 c6         1 V65      -0.069900
     12 C19          1.7610    -2.3480     0.5830 c6         1 V65      -0.090400
     13 C12          1.0760    -0.0400    -1.9950 c3         1 V65       0.275100
     14 C22          2.1020     0.7610    -1.2340 ca         1 V65      -0.112300
     15 C23          3.4560     0.6360    -1.5200 ca         1 V65      -0.087500
     16 C24          4.4130     1.3430    -0.8040 ca         1 V65      -0.107000
     17 C25          4.0000     2.1870     0.2120 ca         1 V65       0.126000
     18 CL           5.1820     3.0780     1.1180 cl         1 V65      -0.204000
     19 C26          2.6550     2.3370     0.5180 ca         1 V65      -0.107000
     20 C27          1.7150     1.6230    -0.2080 ca         1 V65      -0.087500
     21 N7          -1.3880     0.2350    -0.8690 nb         1 V65      -0.368000
     22 C8          -2.5780     0.3770    -0.2930 ca         1 V65       0.451900
     23 N29         -3.2710     1.5000    -0.5330 nh         1 V65      -0.775300
     24 C30         -4.5790     1.7690     0.0360 c6         1 V65       0.190300
     25 C31         -4.5800     3.1520     0.6640 c6         1 V65       0.134100
     26 O32         -4.1770     4.1440    -0.2550 os         1 V65      -0.444000
     27 C33         -2.8840     3.8860    -0.7540 c6         1 V65       0.134100
     28 C34         -2.8090     2.5330    -1.4400 c6         1 V65       0.190300
     29 N9          -3.1250    -0.5420     0.5230 nb         1 V65      -0.338000
     30 OXT         -2.3540    -3.7450     1.7920 o          1 V65      -0.567100
     31 H21N        -4.5570    -1.4950     1.9550 hn         1 V65       0.327500
     32 H22N        -4.5900    -3.0160     2.7870 hn         1 V65       0.327500
     33 H14          2.2490    -2.0240    -1.4430 h1         1 V65       0.041700
     34 H121         1.5480    -0.5210    -2.8530 h1         1 V65       0.071200
     35 H122         0.2930     0.6080    -2.3810 h1         1 V65       0.071200
     36 H151        -0.1000    -3.8420    -0.8570 hc         1 V65       0.060950
     37 H152         0.5090    -3.4440    -2.4610 hc         1 V65       0.060950
     38 H191         2.1520    -1.3870     0.9270 hc         1 V65       0.060950
     39 H192         0.8980    -2.5970     1.2020 hc         1 V65       0.060950
     40 H161         1.4620    -5.6000    -1.6220 hc         1 V65       0.037200
     41 H162         2.7140    -4.4080    -1.9100 hc         1 V65       0.037200
     42 H171         1.4990    -5.1280     0.7970 hc         1 V65       0.045200
     43 H172         3.1180    -5.5250     0.2530 hc         1 V65       0.045200
     44 H181         3.1170    -3.5350     1.7680 hc         1 V65       0.037200
     45 H182         3.7270    -3.1320     0.1760 hc         1 V65       0.037200
     46 H23          3.7790    -0.0240    -2.3160 ha         1 V65       0.122000
     47 H27          0.6660     1.7440     0.0290 ha         1 V65       0.122000
     48 H24          5.4630     1.2330    -1.0390 ha         1 V65       0.130000
     49 H26          2.3420     3.0030     1.3100 ha         1 V65       0.130000
     50 H301        -5.3360     1.7130    -0.7540 h1         1 V65       0.069950
     51 H302        -4.8210     1.0230     0.7870 h1         1 V65       0.069950
     52 H341        -1.7880     2.3260    -1.7490 h1         1 V65       0.069950
     53 H342        -3.4400     2.5340    -2.3360 h1         1 V65       0.069950
     54 H311        -5.5880     3.4050     0.9970 h1         1 V65       0.055450
     55 H312        -3.9210     3.1500     1.5440 h1         1 V65       0.055450
     56 H331        -2.6460     4.6740    -1.4700 h1         1 V65       0.055450
     57 H332        -2.1420     3.9270     0.0560 h1         1 V65       0.055450
@<TRIPOS>BOND
     1     1     2 1   
     2     1     3 1   
     3     1    30 2   
     4     2    31 1   
     5     2    32 1   
     6     3     4 ar  
     7     3    29 ar  
     8     4     5 ar  
     9     5     6 1   
    10     5    21 ar  
    11     6     7 1   
    12     6    13 1   
    13     7     8 1   
    14     7    12 1   
    15     7    33 1   
    16     8     9 1   
    17     8    36 1   
    18     8    37 1   
    19     9    10 1   
    20     9    40 1   
    21     9    41 1   
    22    10    11 1   
    23    10    42 1   
    24    10    43 1   
    25    11    12 1   
    26    11    44 1   
    27    11    45 1   
    28    12    38 1   
    29    12    39 1   
    30    13    14 1   
    31    13    34 1   
    32    13    35 1   
    33    14    15 ar  
    34    14    20 ar  
    35    15    16 ar  
    36    15    46 1   
    37    16    17 ar  
    38    16    48 1   
    39    17    18 1   
    40    17    19 ar  
    41    19    20 ar  
    42    19    49 1   
    43    20    47 1   
    44    21    22 ar  
    45    22    23 1   
    46    22    29 ar  
    47    23    24 1   
    48    23    28 1   
    49    24    25 1   
    50    24    50 1   
    51    24    51 1   
    52    25    26 1   
    53    25    54 1   
    54    25    55 1   
    55    26    27 1   
    56    27    28 1   
    57    27    56 1   
    58    27    57 1   
    59    28    52 1   
    60    28    53 1   
@<TRIPOS>SUBSTRUCTURE
     1 V65         1 TEMP              0 ****  ****    0 ROOT
