@<TRIPOS>MOLECULE
V66
   93    95     1     0     0
SMALL
abcg2


@<TRIPOS>ATOM
      1 O43         -4.6250    -1.4170     0.5600 o          1 V66      -0.554000
      2 C37         -3.9650    -1.6920    -0.4220 c          1 V66       0.654100
      3 O38         -4.3860    -2.3920    -1.4730 os         1 V66      -0.474100
      4 C39         -5.7200    -2.9650    -1.5500 c3         1 V66       0.225000
      5 C40         -6.7840    -1.8750    -1.5470 c3         1 V66      -0.109100
      6 C41         -5.7110    -3.6710    -2.9010 c3         1 V66      -0.109100
      7 C42         -5.9400    -3.9810    -0.4360 c3         1 V66      -0.109100
      8 C02         -1.4370     0.7460    -0.3310 c          1 V66       0.581100
      9 N18          5.5860    -1.3930    -0.6810 ns         1 V66      -0.505900
     10 C19          6.1810    -2.5930    -1.2360 c3         1 V66       0.101000
     11 C20          6.4930    -3.6260    -0.1590 c3         1 V66      -0.088400
     12 C21          5.3270    -4.5120     0.2680 c3         1 V66      -0.074400
     13 C22          4.1630    -3.8070     0.9580 c3         1 V66      -0.073400
     14 C23          3.1610    -4.8390     1.4900 c3         1 V66      -0.104700
     15 C28         -1.9470    -0.5230     0.3410 c3         1 V66       0.051700
     16 C29         -0.7150    -1.2520     0.8920 c3         1 V66      -0.097400
     17 C30         -1.0880    -2.5050     1.6830 c3         1 V66      -0.098700
     18 C31          0.1070    -3.2130     2.1950 cc         1 V66       0.422300
     19 N32          0.4260    -3.5040     3.4040 nd         1 V66      -0.359000
     20 N33          1.6280    -4.1700     3.3470 nd         1 V66      -0.362000
     21 C34          1.9600    -4.2360     2.1080 cc         1 V66       0.420300
     22 O35          1.0370    -3.6460     1.3260 os         1 V66      -0.287000
     23 N36         -2.6740    -1.3310    -0.5990 ns         1 V66      -0.501900
     24 N13          1.6770     3.1220    -0.5830 ns         1 V66      -0.477900
     25 C14          3.0940     2.8180    -0.5460 c3         1 V66       0.107700
     26 C15          3.3920     1.4650    -1.2060 c3         1 V66      -0.089400
     27 C16          4.6920     0.8510    -0.7040 c3         1 V66      -0.155400
     28 C17          5.0700    -0.4160    -1.4430 c          1 V66       0.596100
     29 O24          4.9360    -0.5270    -2.6550 o          1 V66      -0.606100
     30 C25          3.8740     3.9350    -1.2150 c3         1 V66       0.149600
     31 O26          3.6940     5.1260    -0.4910 oh         1 V66      -0.655000
     32 N03         -1.4700     1.8540     0.4280 ns         1 V66      -0.472900
     33 C04         -0.6530     2.9990     0.1000 c3         1 V66       0.032700
     34 C12          0.8170     2.6280     0.3150 c          1 V66       0.578100
     35 O27          1.1550     1.9480     1.2730 o          1 V66      -0.618100
     36 C05         -1.0120     4.1950     0.9800 c3         1 V66      -0.081400
     37 C06         -2.4630     4.6620     0.8730 c6         1 V66      -0.058700
     38 C07         -2.7020     5.8300     1.8320 c6         1 V66      -0.072400
     39 C08         -4.1380     6.3370     1.7660 c6         1 V66      -0.072900
     40 C09         -4.5250     6.7260     0.3440 c6         1 V66      -0.074400
     41 C10         -4.2940     5.5680    -0.6200 c6         1 V66      -0.072900
     42 C11         -2.8580     5.0560    -0.5500 c6         1 V66      -0.072400
     43 H42         -6.5880    -1.1370    -2.3260 hc         1 V66       0.050144
     44 H43         -7.7550    -2.3230    -1.7570 hc         1 V66       0.050144
     45 H44         -6.8530    -1.3640    -0.5900 hc         1 V66       0.050144
     46 H45         -4.9460    -4.4480    -2.9420 hc         1 V66       0.050144
     47 H46         -6.6770    -4.1450    -3.0740 hc         1 V66       0.050144
     48 H47         -5.5350    -2.9670    -3.7160 hc         1 V66       0.050144
     49 H48         -6.0160    -3.5160     0.5430 hc         1 V66       0.050144
     50 H49         -6.8710    -4.5180    -0.6210 hc         1 V66       0.050144
     51 H50         -5.1350    -4.7180    -0.4130 hc         1 V66       0.050144
     52 H23          5.5040    -3.0240    -1.9770 h1         1 V66       0.052200
     53 H24          7.1020    -2.3320    -1.7660 h1         1 V66       0.052200
     54 H25          7.2740    -4.2770    -0.5550 hc         1 V66       0.046200
     55 H26          6.9350    -3.1310     0.7120 hc         1 V66       0.046200
     56 H28          4.9490    -5.0450    -0.6100 hc         1 V66       0.042200
     57 H27          5.7200    -5.2800     0.9410 hc         1 V66       0.042200
     58 H29          4.5300    -3.2010     1.7910 hc         1 V66       0.054700
     59 H30          3.6620    -3.1270     0.2660 hc         1 V66       0.054700
     60 H31          2.8470    -5.4990     0.6770 hc         1 V66       0.072200
     61 H32          3.6390    -5.4650     2.2450 hc         1 V66       0.072200
     62 H36         -2.6190    -0.2760     1.1650 h1         1 V66       0.093700
     63 H37         -0.0620    -1.5150     0.0570 hc         1 V66       0.073700
     64 H38         -0.1540    -0.5630     1.5270 hc         1 V66       0.073700
     65 H39         -1.7130    -2.2470     2.5390 hc         1 V66       0.081200
     66 H40         -1.6630    -3.1890     1.0540 hc         1 V66       0.081200
     67 H41         -2.2120    -1.5830    -1.4590 hn         1 V66       0.342500
     68 H16          1.3120     3.5840    -1.4010 hn         1 V66       0.320500
     69 H17          3.3910     2.7710     0.5050 h1         1 V66       0.086700
     70 H18          2.5710     0.7780    -0.9920 hc         1 V66       0.068200
     71 H19          3.4210     1.5870    -2.2920 hc         1 V66       0.068200
     72 H20          5.5240     1.5510    -0.8340 hc         1 V66       0.057200
     73 H21          4.6200     0.6640     0.3700 hc         1 V66       0.057200
     74 H33          4.9300     3.6410    -1.2580 h1         1 V66       0.026200
     75 H34          3.5340     4.0340    -2.2560 h1         1 V66       0.026200
     76 H35          4.2230     5.8120    -0.9060 ho         1 V66       0.446000
     77 H1          -1.7780     1.7640     1.3840 hn         1 V66       0.324500
     78 H2          -0.8200     3.2580    -0.9470 h1         1 V66       0.082700
     79 H3          -0.7870     3.9490     2.0230 hc         1 V66       0.058700
     80 H4          -0.3440     5.0190     0.7090 hc         1 V66       0.058700
     81 H5          -3.1180     3.8390     1.1880 hc         1 V66       0.051700
     82 H7          -2.4580     5.5240     2.8530 hc         1 V66       0.039200
     83 H6          -2.0130     6.6460     1.5820 hc         1 V66       0.039200
     84 H9          -4.8110     5.5490     2.1210 hc         1 V66       0.040450
     85 H8          -4.2680     7.1850     2.4430 hc         1 V66       0.040450
     86 H11         -5.5690     7.0470     0.3090 hc         1 V66       0.038700
     87 H10         -3.9260     7.5860     0.0260 hc         1 V66       0.038700
     88 H13         -4.9830     4.7500    -0.3770 hc         1 V66       0.040450
     89 H12         -4.5290     5.8720    -1.6430 hc         1 V66       0.040450
     90 H14         -2.1770     5.8380    -0.9060 hc         1 V66       0.039200
     91 H15         -2.7440     4.2090    -1.2320 hc         1 V66       0.039200
     92 H22          5.7400    -1.2070     0.2970 hn         1 V66       0.311500
     93 O01         -0.9690     0.7180    -1.4580 o          1 V66      -0.601100
@<TRIPOS>BOND
     1     1     2 2   
     2     2     3 1   
     3     2    23 1   
     4     3     4 1   
     5     4     5 1   
     6     4     6 1   
     7     4     7 1   
     8     5    43 1   
     9     5    44 1   
    10     5    45 1   
    11     6    46 1   
    12     6    47 1   
    13     6    48 1   
    14     7    49 1   
    15     7    50 1   
    16     7    51 1   
    17     8    15 1   
    18     8    32 1   
    19     8    93 2   
    20     9    10 1   
    21     9    28 1   
    22     9    92 1   
    23    10    11 1   
    24    10    52 1   
    25    10    53 1   
    26    11    12 1   
    27    11    54 1   
    28    11    55 1   
    29    12    13 1   
    30    12    56 1   
    31    12    57 1   
    32    13    14 1   
    33    13    58 1   
    34    13    59 1   
    35    14    21 1   
    36    14    60 1   
    37    14    61 1   
    38    15    16 1   
    39    15    23 1   
    40    15    62 1   
    41    16    17 1   
    42    16    63 1   
    43    16    64 1   
    44    17    18 1   
    45    17    65 1   
    46    17    66 1   
    47    18    19 2   
    48    18    22 1   
    49    19    20 1   
    50    20    21 2   
    51    21    22 1   
    52    23    67 1   
    53    24    25 1   
    54    24    34 1   
    55    24    68 1   
    56    25    26 1   
    57    25    30 1   
    58    25    69 1   
    59    26    27 1   
    60    26    70 1   
    61    26    71 1   
    62    27    28 1   
    63    27    72 1   
    64    27    73 1   
    65    28    29 2   
    66    30    31 1   
    67    30    74 1   
    68    30    75 1   
    69    31    76 1   
    70    32    33 1   
    71    32    77 1   
    72    33    34 1   
    73    33    36 1   
    74    33    78 1   
    75    34    35 2   
    76    36    37 1   
    77    36    79 1   
    78    36    80 1   
    79    37    38 1   
    80    37    42 1   
    81    37    81 1   
    82    38    39 1   
    83    38    82 1   
    84    38    83 1   
    85    39    40 1   
    86    39    84 1   
    87    39    85 1   
    88    40    41 1   
    89    40    86 1   
    90    40    87 1   
    91    41    42 1   
    92    41    88 1   
    93    41    89 1   
    94    42    90 1   
    95    42    91 1   
@<TRIPOS>SUBSTRUCTURE
     1 V66         1 TEMP              0 ****  ****    0 ROOT
