@<TRIPOS>MOLECULE
V66
   93    95     1     0     0
SMALL
No Charge or Current Charge


@<TRIPOS>ATOM
      1 O43         -4.6690    -2.1160     1.1350 o          1 V66      -0.554000
      2 C37         -4.4170    -1.8770    -0.0340 c          1 V66       0.654100
      3 O38         -5.1000    -2.3090    -1.1360 os         1 V66      -0.474100
      4 C39         -6.2620    -3.1660    -1.0430 c3         1 V66       0.225000
      5 C40         -7.3920    -2.4320    -0.2760 c3         1 V66      -0.109100
      6 C41         -6.6850    -3.3930    -2.5110 c3         1 V66      -0.109100
      7 C42         -5.8630    -4.5160    -0.3930 c3         1 V66      -0.109100
      8 C02         -1.9330     0.9110    -0.2000 c          1 V66       0.581100
      9 N18          5.8480    -1.1210    -0.6190 ns         1 V66      -0.505900
     10 C19          6.3190    -2.3650    -1.2310 c3         1 V66       0.101000
     11 C20          6.5330    -3.5010    -0.2060 c3         1 V66      -0.088400
     12 C21          5.3280    -4.4540    -0.0160 c3         1 V66      -0.074400
     13 C22          4.0750    -3.8210     0.6340 c3         1 V66      -0.073400
     14 C23          2.9470    -4.8600     0.8490 c3         1 V66      -0.104700
     15 C28         -2.3820    -0.4470     0.4150 c3         1 V66       0.051700
     16 C29         -1.1430    -1.3550     0.6710 c3         1 V66      -0.097400
     17 C30         -1.4320    -2.7130     1.3550 c3         1 V66      -0.098700
     18 C31         -0.1710    -3.4330     1.7480 cc         1 V66       0.422300
     19 N32          0.2370    -3.7230     2.9720 nd         1 V66      -0.359000
     20 N33          1.4710    -4.3040     2.8320 nd         1 V66      -0.362000
     21 C34          1.7280    -4.3070     1.5340 cc         1 V66       0.420300
     22 O35          0.7270    -3.7750     0.7910 os         1 V66      -0.287000
     23 N36         -3.3730    -1.1090    -0.4600 ns         1 V66      -0.501900
     24 N13          2.0990     3.2500    -0.1300 ns         1 V66      -0.477900
     25 C14          3.5510     3.0660     0.0110 c3         1 V66       0.107700
     26 C15          4.0010     1.7990    -0.7660 c3         1 V66      -0.089400
     27 C16          5.4260     1.2990    -0.4140 c3         1 V66      -0.155400
     28 C17          5.8270     0.0920    -1.2700 c          1 V66       0.596100
     29 O24          6.1470     0.2040    -2.4450 o          1 V66      -0.606100
     30 C25          4.3300     4.3460    -0.4080 c3         1 V66       0.149600
     31 O26          3.8080     5.5090     0.2540 oh         1 V66      -0.655000
     32 N03         -1.1410     1.6770     0.6300 ns         1 V66      -0.472900
     33 C04         -0.3260     2.8340     0.2060 c3         1 V66       0.032700
     34 C12          1.1550     2.5470     0.5850 c          1 V66       0.578100
     35 O27          1.4740     1.7260     1.4380 o          1 V66      -0.618100
     36 C05         -0.8370     4.1480     0.8550 c3         1 V66      -0.081400
     37 C06         -2.2920     4.5790     0.4850 c6         1 V66      -0.058700
     38 C07         -2.7430     5.7930     1.3460 c6         1 V66      -0.072400
     39 C08         -4.1890     6.2300     1.0060 c6         1 V66      -0.072900
     40 C09         -4.3370     6.5500    -0.5010 c6         1 V66      -0.074400
     41 C10         -3.8920     5.3490    -1.3700 c6         1 V66      -0.072900
     42 C11         -2.4470     4.9110    -1.0280 c6         1 V66      -0.072400
     43 H42         -7.5280    -1.4150    -0.6610 hc         1 V66       0.050144
     44 H43         -8.3420    -2.9680    -0.3920 hc         1 V66       0.050144
     45 H44         -7.1860    -2.3710     0.7980 hc         1 V66       0.050144
     46 H45         -5.8790    -3.8720    -3.0800 hc         1 V66       0.050144
     47 H46         -7.5700    -4.0390    -2.5670 hc         1 V66       0.050144
     48 H47         -6.9290    -2.4420    -2.9990 hc         1 V66       0.050144
     49 H48         -5.6830    -4.4160     0.6830 hc         1 V66       0.050144
     50 H49         -6.6650    -5.2520    -0.5200 hc         1 V66       0.050144
     51 H50         -4.9570    -4.9200    -0.8600 hc         1 V66       0.050144
     52 H23          5.6150    -2.6830    -2.0110 h1         1 V66       0.052200
     53 H24          7.2820    -2.1540    -1.7160 h1         1 V66       0.052200
     54 H25          7.3730    -4.1100    -0.5610 hc         1 V66       0.046200
     55 H26          6.8490    -3.0880     0.7610 hc         1 V66       0.046200
     56 H28          5.0540    -4.8790    -0.9900 hc         1 V66       0.042200
     57 H27          5.6560    -5.2960     0.6060 hc         1 V66       0.042200
     58 H29          4.3510    -3.3800     1.6000 hc         1 V66       0.054700
     59 H30          3.6990    -3.0070     0.0010 hc         1 V66       0.054700
     60 H31          2.6520    -5.2790    -0.1200 hc         1 V66       0.072200
     61 H32          3.3350    -5.6970     1.4420 hc         1 V66       0.072200
     62 H36         -2.8590    -0.2130     1.3770 h1         1 V66       0.093700
     63 H37         -0.6340    -1.5380    -0.2840 hc         1 V66       0.073700
     64 H38         -0.4260    -0.8120     1.2990 hc         1 V66       0.073700
     65 H39         -2.0470    -2.5500     2.2480 hc         1 V66       0.081200
     66 H40         -2.0130    -3.3540     0.6820 hc         1 V66       0.081200
     67 H41         -3.3150    -0.9640    -1.4610 hn         1 V66       0.342500
     68 H16          1.7640     3.9430    -0.7890 hn         1 V66       0.320500
     69 H17          3.7580     2.8980     1.0770 h1         1 V66       0.086700
     70 H18          3.2980     0.9810    -0.5610 hc         1 V66       0.068200
     71 H19          3.9350     1.9970    -1.8430 hc         1 V66       0.068200
     72 H20          6.1450     2.1040    -0.6050 hc         1 V66       0.057200
     73 H21          5.4450     1.0290     0.6490 hc         1 V66       0.057200
     74 H33          5.3930     4.2210    -0.1630 h1         1 V66       0.026200
     75 H34          4.2530     4.4700    -1.4970 h1         1 V66       0.026200
     76 H35          4.3480     6.2760    -0.0400 ho         1 V66       0.446000
     77 H1          -0.9560     1.2970     1.5520 hn         1 V66       0.324500
     78 H2          -0.3580     2.9280    -0.8870 h1         1 V66       0.082700
     79 H3          -0.7590     4.0350     1.9440 hc         1 V66       0.058700
     80 H4          -0.1460     4.9580     0.5920 hc         1 V66       0.058700
     81 H5          -2.9480     3.7300     0.7270 hc         1 V66       0.051700
     82 H7          -2.6820     5.5390     2.4140 hc         1 V66       0.039200
     83 H6          -2.0580     6.6380     1.1880 hc         1 V66       0.039200
     84 H9          -4.8920     5.4330     1.2860 hc         1 V66       0.040450
     85 H8          -4.4630     7.1100     1.6030 hc         1 V66       0.040450
     86 H11         -5.3800     6.8100    -0.7270 hc         1 V66       0.038700
     87 H10         -3.7330     7.4330    -0.7520 hc         1 V66       0.038700
     88 H13         -4.5800     4.5060    -1.2160 hc         1 V66       0.040450
     89 H12         -3.9590     5.6150    -2.4340 hc         1 V66       0.040450
     90 H14         -1.7450     5.7100    -1.3080 hc         1 V66       0.039200
     91 H15         -2.1860     4.0410    -1.6430 hc         1 V66       0.039200
     92 H22          5.5770    -1.1260     0.3570 hn         1 V66       0.311500
     93 O01         -2.2100     1.2590    -1.3420 o          1 V66      -0.601100
@<TRIPOS>BOND
     1     1     2 2   
     2     2     3 1   
     3     2    23 1   
     4     3     4 1   
     5     4     5 1   
     6     4     6 1   
     7     4     7 1   
     8     5    43 1   
     9     5    44 1   
    10     5    45 1   
    11     6    46 1   
    12     6    47 1   
    13     6    48 1   
    14     7    49 1   
    15     7    50 1   
    16     7    51 1   
    17     8    15 1   
    18     8    32 1   
    19     8    93 2   
    20     9    10 1   
    21     9    28 1   
    22     9    92 1   
    23    10    11 1   
    24    10    52 1   
    25    10    53 1   
    26    11    12 1   
    27    11    54 1   
    28    11    55 1   
    29    12    13 1   
    30    12    56 1   
    31    12    57 1   
    32    13    14 1   
    33    13    58 1   
    34    13    59 1   
    35    14    21 1   
    36    14    60 1   
    37    14    61 1   
    38    15    16 1   
    39    15    23 1   
    40    15    62 1   
    41    16    17 1   
    42    16    63 1   
    43    16    64 1   
    44    17    18 1   
    45    17    65 1   
    46    17    66 1   
    47    18    19 2   
    48    18    22 1   
    49    19    20 1   
    50    20    21 2   
    51    21    22 1   
    52    23    67 1   
    53    24    25 1   
    54    24    34 1   
    55    24    68 1   
    56    25    26 1   
    57    25    30 1   
    58    25    69 1   
    59    26    27 1   
    60    26    70 1   
    61    26    71 1   
    62    27    28 1   
    63    27    72 1   
    64    27    73 1   
    65    28    29 2   
    66    30    31 1   
    67    30    74 1   
    68    30    75 1   
    69    31    76 1   
    70    32    33 1   
    71    32    77 1   
    72    33    34 1   
    73    33    36 1   
    74    33    78 1   
    75    34    35 2   
    76    36    37 1   
    77    36    79 1   
    78    36    80 1   
    79    37    38 1   
    80    37    42 1   
    81    37    81 1   
    82    38    39 1   
    83    38    82 1   
    84    38    83 1   
    85    39    40 1   
    86    39    84 1   
    87    39    85 1   
    88    40    41 1   
    89    40    86 1   
    90    40    87 1   
    91    41    42 1   
    92    41    88 1   
    93    41    89 1   
    94    42    90 1   
    95    42    91 1   
@<TRIPOS>SUBSTRUCTURE
     1 V66         1 TEMP              0 ****  ****    0 ROOT
