@<TRIPOS>MOLECULE
V67
   33    35     1     0     0
SMALL
No Charge or Current Charge


@<TRIPOS>ATOM
      1 N1          16.6370    -8.0140   -15.8040 na         1 V67      -0.187000
      2 C4          16.8920    -4.6760   -17.3770 ca         1 V67      -0.056000
      3 C5          17.2490    -3.9100   -16.2480 ca         1 V67       0.226500
      4 C8          17.4820    -2.4110   -16.3660 c          1 V67       0.509600
      5 C13         17.9320     1.9780   -15.3660 ca         1 V67       0.130000
      6 C15         18.6060     2.2870   -14.1760 ca         1 V67       0.071000
      7 C17         19.0140     1.2590   -13.3160 ca         1 V67      -0.081000
      8 C22         16.1890    -8.6010   -14.6500 cc         1 V67       0.449400
      9 C24         16.6220   -10.1540   -16.1110 cd         1 V67       0.233900
     10 C2          16.8430    -6.6410   -15.9370 ca         1 V67       0.387500
     11 C3          16.6860    -6.0600   -17.2160 ca         1 V67      -0.157000
     12 N6          17.3840    -4.5150   -15.0380 nb         1 V67      -0.230000
     13 N7          17.1850    -5.8420   -14.8930 nb         1 V67      -0.336000
     14 O9          17.3760    -1.8210   -17.4410 o          1 V67      -0.637100
     15 N10         17.8350    -1.7750   -15.1790 ns         1 V67      -0.126000
     16 C11         18.0870    -0.4110   -14.8520 ca         1 V67       0.004000
     17 C12         17.6720     0.6410   -15.7010 ca         1 V67      -0.194000
     18 C18         18.7570    -0.0980   -13.6340 ca         1 V67      -0.180600
     19 C19         19.2200    -1.1680   -12.6610 c          1 V67       0.722600
     20 O20         20.2210    -0.9450   -11.9960 o          1 V67      -0.689000
     21 O21         18.5660    -2.1950   -12.5630 o          1 V67      -0.689000
     22 N23         16.1570    -9.9200   -14.8240 nd         1 V67      -0.685000
     23 C25         16.9430    -8.9760   -16.7410 cc         1 V67      -0.228000
     24 H1          16.7740    -4.2080   -18.3520 ha         1 V67       0.154000
     25 H2          19.5280     1.5190   -12.3930 ha         1 V67       0.152000
     26 H3          15.9050    -8.0450   -13.7630 h5         1 V67       0.085100
     27 H4          16.7080   -11.1580   -16.5070 h4         1 V67       0.032100
     28 H5          16.3980    -6.6660   -18.0710 ha         1 V67       0.131000
     29 H6          17.9240    -2.4010   -14.3840 hn         1 V67       0.256000
     30 H7          17.1350     0.4450   -16.6230 ha         1 V67       0.150000
     31 H9          17.3470    -8.7790   -17.7260 h4         1 V67       0.154000
     32 F14         17.5240     2.9640   -16.1980 f          1 V67      -0.187000
     33 F16         18.8610     3.5750   -13.8450 f          1 V67      -0.187000
@<TRIPOS>BOND
     1     1     8 1   
     2     1    10 1   
     3     1    23 1   
     4     2     3 ar  
     5     2    11 ar  
     6     2    24 1   
     7     3     4 1   
     8     3    12 ar  
     9     4    14 2   
    10     4    15 1   
    11     5     6 ar  
    12     5    17 ar  
    13     5    32 1   
    14     6     7 ar  
    15     6    33 1   
    16     7    18 ar  
    17     7    25 1   
    18     8    22 2   
    19     8    26 1   
    20     9    22 1   
    21     9    23 2   
    22     9    27 1   
    23    10    11 ar  
    24    10    13 ar  
    25    11    28 1   
    26    12    13 ar  
    27    15    16 1   
    28    15    29 1   
    29    16    17 ar  
    30    16    18 ar  
    31    17    30 1   
    32    18    19 1   
    33    19    20 1   
    34    19    21 1   
    35    23    31 1   
@<TRIPOS>SUBSTRUCTURE
     1 V67         1 TEMP              0 ****  ****    0 ROOT
