@<TRIPOS>MOLECULE
V67
   33    35     1     0     0
SMALL
bcc


@<TRIPOS>ATOM
      1 N1          16.8000    -7.8840   -15.8190 na         1 V67      -0.237700
      2 C4          16.7000    -4.5710   -17.3510 ca         1 V67      -0.139300
      3 C5          17.1720    -3.8890   -16.2280 ca         1 V67       0.291800
      4 C8          17.3590    -2.4000   -16.2820 c          1 V67       0.576600
      5 C13         18.2180     1.8010   -15.5060 ca         1 V67       0.094900
      6 C15         18.7080     2.1300   -14.2580 ca         1 V67       0.035900
      7 C17         18.8880     1.1410   -13.3200 ca         1 V67      -0.099000
      8 C22         16.8550    -8.5110   -14.6050 cc         1 V67       0.449400
      9 C24         16.6140   -10.0370   -16.0730 cd         1 V67       0.299200
     10 C2          16.8970    -6.5100   -16.0340 ca         1 V67       0.452800
     11 C3          16.5480    -5.9280   -17.2530 ca         1 V67      -0.240300
     12 N6          17.4610    -4.5140   -15.1040 nb         1 V67      -0.230000
     13 N7          17.3370    -5.8080   -15.0050 nb         1 V67      -0.336000
     14 O9          17.0950    -1.8080   -17.3170 o          1 V67      -0.637100
     15 N10         17.8190    -1.8520   -15.1460 ns         1 V67      -0.452100
     16 C11         18.0990    -0.5140   -14.8840 ca         1 V67       0.096600
     17 C12         17.9130     0.4990   -15.8310 ca         1 V67      -0.212000
     18 C18         18.5920    -0.1880   -13.6020 ca         1 V67      -0.180600
     19 C19         18.8260    -1.2110   -12.4900 c          1 V67       0.933200
     20 O20         19.2540    -0.7810   -11.4130 o          1 V67      -0.794300
     21 O21         18.5650    -2.4110   -12.7580 o          1 V67      -0.794300
     22 N23         16.7430    -9.7980   -14.7280 nd         1 V67      -0.685000
     23 C25         16.6420    -8.8710   -16.7680 cc         1 V67      -0.260600
     24 H1          16.4550    -4.0440   -18.2610 ha         1 V67       0.172000
     25 H2          19.2690     1.4010   -12.3420 ha         1 V67       0.170000
     26 H3          16.9670    -7.9650   -13.6830 h5         1 V67       0.085100
     27 H4          16.5100   -11.0350   -16.4690 h4         1 V67       0.032100
     28 H5          16.1660    -6.5070   -18.0820 ha         1 V67       0.149000
     29 H6          18.0230    -2.4420   -14.3100 hn         1 V67       0.422500
     30 H7          17.5350     0.2850   -16.8170 ha         1 V67       0.168000
     31 H9          16.5880    -8.6720   -17.8240 h4         1 V67       0.172000
     32 F14         18.0390     2.7680   -16.4120 f          1 V67      -0.151900
     33 F16         19.0030     3.4060   -13.9770 f          1 V67      -0.151900
@<TRIPOS>BOND
     1     1     8 1   
     2     1    10 1   
     3     1    23 1   
     4     2     3 ar  
     5     2    11 ar  
     6     2    24 1   
     7     3     4 1   
     8     3    12 ar  
     9     4    14 2   
    10     4    15 1   
    11     5     6 ar  
    12     5    17 ar  
    13     5    32 1   
    14     6     7 ar  
    15     6    33 1   
    16     7    18 ar  
    17     7    25 1   
    18     8    22 2   
    19     8    26 1   
    20     9    22 1   
    21     9    23 2   
    22     9    27 1   
    23    10    11 ar  
    24    10    13 ar  
    25    11    28 1   
    26    12    13 ar  
    27    15    16 1   
    28    15    29 1   
    29    16    17 ar  
    30    16    18 ar  
    31    17    30 1   
    32    18    19 1   
    33    19    20 1   
    34    19    21 1   
    35    23    31 1   
@<TRIPOS>SUBSTRUCTURE
     1 V67         1 TEMP              0 ****  ****    0 ROOT
