@<TRIPOS>MOLECULE
V68
   65    69     1     0     0
SMALL
bcc


@<TRIPOS>ATOM
      1 CAL         -4.6060    -1.6740    -0.0900 c6         1 V68      -0.071400
      2 CAN         -5.5280    -2.3930    -1.0620 c6         1 V68       0.167800
      3 NBF         -6.8010    -2.7170    -0.4480 n3         1 V68      -0.717600
      4 CAC         -7.6380    -3.4810    -1.3430 c3         1 V68       0.154100
      5 CAO         -7.4780    -1.5250     0.0240 c6         1 V68       0.167800
      6 CAM         -6.6320    -0.7790     1.0430 c6         1 V68      -0.071400
      7 CBE         -5.2690    -0.4160     0.4620 c6         1 V68      -0.084700
      8 CAQ         -4.4220     0.2940     1.5140 c3         1 V68       0.071300
      9 NBG         -3.1650     0.7810     0.9930 na         1 V68       0.014200
     10 NAT         -2.0420     0.0520     1.0660 nc         1 V68      -0.516100
     11 C4          -2.9620     1.9250     0.3140 ca         1 V68       0.480800
     12 N3          -3.8680     2.8720     0.0560 nb         1 V68      -0.757000
     13 C2          -3.3600     3.8630    -0.6460 ca         1 V68       0.720900
     14 N1          -2.1240     3.9900    -1.1260 nb         1 V68      -0.839000
     15 C6          -1.2310     3.0290    -0.8790 ca         1 V68       0.783200
     16 NAD         -0.0130     3.1610    -1.4090 nv         1 V68      -0.955500
     17 C5          -1.6200     1.9310    -0.0750 ca         1 V68      -0.510500
     18 CAY         -1.0930     0.7160     0.4450 cd         1 V68       0.435500
     19 CAW          0.2660     0.1740     0.3710 ca         1 V68      -0.108900
     20 CAK          1.3630     0.9790     0.5610 ca         1 V68      -0.102000
     21 CAF          0.4630    -1.2090     0.1220 ca         1 V68      -0.090000
     22 CAH          1.7180    -1.7360     0.0420 ca         1 V68      -0.129000
     23 CAZ          2.8660    -0.9190     0.2080 ca         1 V68       0.009000
     24 CAJ          4.1710    -1.4340     0.1110 ca         1 V68      -0.174000
     25 CBA          2.6740     0.4610     0.4780 ca         1 V68      -0.078000
     26 CAG          3.8130     1.2740     0.6550 ca         1 V68      -0.079000
     27 CAE          5.0780     0.7600     0.5590 ca         1 V68      -0.200000
     28 CAV          5.2660    -0.6150     0.2790 ca         1 V68       0.155100
     29 OAU          6.4770    -1.1850     0.1660 os         1 V68      -0.325900
     30 CAP          7.6440    -0.3890     0.3010 c3         1 V68       0.144400
     31 CBD          8.8660    -1.2620     0.0760 c3         1 V68      -0.063700
     32 CAB          8.8750    -1.8850    -1.3160 c3         1 V68      -0.087600
     33 CAA         10.1180    -0.4200     0.3060 c3         1 V68      -0.087600
     34 H1          -4.3580    -2.3460     0.7380 hc         1 V68       0.050700
     35 H2          -3.6700    -1.4350    -0.5990 hc         1 V68       0.050700
     36 H3          -5.6640    -1.7670    -1.9640 h1         1 V68       0.030700
     37 H4          -5.0570    -3.3200    -1.3980 h1         1 V68       0.030700
     38 H6          -7.1340    -4.4060    -1.6300 h1         1 V68       0.029367
     39 H7          -8.5720    -3.7490    -0.8470 h1         1 V68       0.029367
     40 H8          -7.8950    -2.9410    -2.2690 h1         1 V68       0.029367
     41 H9          -7.7250    -0.8450    -0.8120 h1         1 V68       0.030700
     42 H10         -8.4280    -1.8190     0.4780 h1         1 V68       0.030700
     43 H11         -7.1620     0.1200     1.3670 hc         1 V68       0.050700
     44 H12         -6.4980    -1.4090     1.9290 hc         1 V68       0.050700
     45 H13         -5.4300     0.2870    -0.3650 hc         1 V68       0.062700
     46 H14         -4.9670     1.1500     1.9140 h1         1 V68       0.072700
     47 H15         -4.1940    -0.3720     2.3470 h1         1 V68       0.072700
     48 H16         -4.0340     4.6810    -0.8790 h5         1 V68       0.045100
     49 H17          0.1570     3.9160    -2.0530 hn         1 V68       0.445800
     50 H18          0.6400     2.3970    -1.4150 hn         1 V68       0.445800
     51 H19          1.2370     2.0290     0.8020 ha         1 V68       0.138000
     52 H20         -0.4010    -1.8460    -0.0180 ha         1 V68       0.144000
     53 H21          1.8500    -2.7930    -0.1560 ha         1 V68       0.136000
     54 H22          4.3170    -2.4870    -0.0980 ha         1 V68       0.148000
     55 H23          3.6820     2.3290     0.8650 ha         1 V68       0.132000
     56 H24          5.9220     1.4210     0.6980 ha         1 V68       0.136000
     57 H25          7.6350     0.4310    -0.4300 h1         1 V68       0.034200
     58 H26          7.6810     0.0590     1.3010 h1         1 V68       0.034200
     59 H27          8.8510    -2.0640     0.8220 hc         1 V68       0.061700
     60 H28          8.8710    -1.1110    -2.0870 hc         1 V68       0.037367
     61 H29          9.7710    -2.4910    -1.4590 hc         1 V68       0.037367
     62 H30          8.0120    -2.5290    -1.4820 hc         1 V68       0.037367
     63 H31         10.1290     0.0240     1.3030 hc         1 V68       0.037367
     64 H32         11.0170    -1.0290     0.2070 hc         1 V68       0.037367
     65 H33         10.1850     0.3920    -0.4210 hc         1 V68       0.037367
@<TRIPOS>BOND
     1     1     2 1   
     2     1     7 1   
     3     1    34 1   
     4     1    35 1   
     5     2     3 1   
     6     2    36 1   
     7     2    37 1   
     8     3     4 1   
     9     3     5 1   
    10     4    38 1   
    11     4    39 1   
    12     4    40 1   
    13     5     6 1   
    14     5    41 1   
    15     5    42 1   
    16     6     7 1   
    17     6    43 1   
    18     6    44 1   
    19     7     8 1   
    20     7    45 1   
    21     8     9 1   
    22     8    46 1   
    23     8    47 1   
    24     9    10 1   
    25     9    11 1   
    26    10    18 2   
    27    11    12 ar  
    28    11    17 ar  
    29    12    13 ar  
    30    13    14 ar  
    31    13    48 1   
    32    14    15 ar  
    33    15    16 1   
    34    15    17 ar  
    35    16    49 1   
    36    16    50 1   
    37    17    18 1   
    38    18    19 1   
    39    19    20 ar  
    40    19    21 ar  
    41    20    25 ar  
    42    20    51 1   
    43    21    22 ar  
    44    21    52 1   
    45    22    23 ar  
    46    22    53 1   
    47    23    24 ar  
    48    23    25 ar  
    49    24    28 ar  
    50    24    54 1   
    51    25    26 ar  
    52    26    27 ar  
    53    26    55 1   
    54    27    28 ar  
    55    27    56 1   
    56    28    29 1   
    57    29    30 1   
    58    30    31 1   
    59    30    57 1   
    60    30    58 1   
    61    31    32 1   
    62    31    33 1   
    63    31    59 1   
    64    32    60 1   
    65    32    61 1   
    66    32    62 1   
    67    33    63 1   
    68    33    64 1   
    69    33    65 1   
@<TRIPOS>SUBSTRUCTURE
     1 V68         1 TEMP              0 ****  ****    0 ROOT
