@<TRIPOS>MOLECULE
V68
   65    69     1     0     0
SMALL
No Charge or Current Charge


@<TRIPOS>ATOM
      1 CAL         -4.9710    -1.7170    -0.1890 c6         1 V68      -0.071400
      2 CAN         -6.0770    -2.2450    -1.1360 c6         1 V68       0.167800
      3 NBF         -7.3450    -2.5130    -0.4050 n3         1 V68      -0.717600
      4 CAC         -8.3770    -3.1170    -1.2750 c3         1 V68       0.154100
      5 CAO         -7.8380    -1.2950     0.2950 c6         1 V68       0.167800
      6 CAM         -6.7840    -0.7430     1.2860 c6         1 V68      -0.071400
      7 CBE         -5.4390    -0.4470     0.5720 c6         1 V68      -0.084700
      8 CAQ         -4.3680     0.0790     1.5740 c3         1 V68       0.100600
      9 NBG         -3.0840     0.4770     0.9680 na         1 V68      -0.015100
     10 NAT         -1.9290    -0.3040     1.0300 nc         1 V68      -0.516100
     11 C4          -2.9000     1.6380     0.2320 ca         1 V68       0.152500
     12 N3          -3.7400     2.6310    -0.1190 nb         1 V68      -0.231000
     13 C2          -3.2140     3.5830    -0.9250 ca         1 V68       0.194900
     14 N1          -1.9540     3.6130    -1.4250 nb         1 V68      -0.313000
     15 C6          -1.1480     2.6080    -1.0560 ca         1 V68       0.454900
     16 NAD          0.0800     2.6170    -1.6150 nv         1 V68      -1.065900
     17 C5          -1.6020     1.6170    -0.1930 ca         1 V68      -0.379900
     18 CAY         -1.0220     0.4080     0.3490 cd         1 V68       0.435500
     19 CAW          0.3770    -0.0360     0.2140 ca         1 V68      -0.108900
     20 CAK          1.4420     0.8450     0.4930 ca         1 V68      -0.084000
     21 CAF          0.6640    -1.3830    -0.0900 ca         1 V68      -0.072000
     22 CAH          1.9950    -1.8270    -0.1750 ca         1 V68      -0.111000
     23 CAZ          3.0540    -0.9350     0.0690 ca         1 V68       0.009000
     24 CAJ          4.3880    -1.3750    -0.0130 ca         1 V68      -0.156000
     25 CBA          2.7760     0.4050     0.4100 ca         1 V68      -0.078000
     26 CAG          3.8350     1.2940     0.6710 ca         1 V68      -0.061000
     27 CAE          5.1670     0.8510     0.5870 ca         1 V68      -0.182000
     28 CAV          5.4460    -0.4890     0.2430 ca         1 V68       0.155100
     29 OAU          6.7320    -0.9790     0.1460 os         1 V68      -0.349100
     30 CAP          7.8870    -0.1540     0.3820 c3         1 V68       0.167600
     31 CBD          9.1570    -1.0170     0.1810 c3         1 V68      -0.063700
     32 CAB          9.2850    -1.5520    -1.2670 c3         1 V68      -0.087600
     33 CAA         10.4280    -0.2420     0.5990 c3         1 V68      -0.087600
     34 H1          -4.6980    -2.5050     0.5270 hc         1 V68       0.050700
     35 H2          -4.0680    -1.5010    -0.7760 hc         1 V68       0.050700
     36 H3          -6.2470    -1.5060    -1.9340 h1         1 V68       0.030700
     37 H4          -5.7150    -3.1640    -1.6200 h1         1 V68       0.030700
     38 H6          -8.0060    -4.0460    -1.7280 h1         1 V68       0.029367
     39 H7          -9.2780    -3.3600    -0.6960 h1         1 V68       0.029367
     40 H8          -8.6620    -2.4290    -2.0820 h1         1 V68       0.029367
     41 H9          -8.0880    -0.5120    -0.4370 h1         1 V68       0.030700
     42 H10         -8.7590    -1.5230     0.8510 h1         1 V68       0.030700
     43 H11         -7.1710     0.1710     1.7580 hc         1 V68       0.050700
     44 H12         -6.6300    -1.4710     2.0940 hc         1 V68       0.050700
     45 H13         -5.6070     0.3570    -0.1590 hc         1 V68       0.062700
     46 H14         -4.7770     0.9500     2.1020 h1         1 V68       0.072700
     47 H15         -4.1740    -0.6970     2.3250 h1         1 V68       0.072700
     48 H16         -3.8760     4.3960    -1.2180 h5         1 V68       0.045100
     49 H17          0.2380     3.2370    -2.4040 hn         1 V68       0.501000
     50 H18          0.6370     1.7690    -1.5800 hn         1 V68       0.501000
     51 H19          1.2300     1.8720     0.7850 ha         1 V68       0.120000
     52 H20         -0.1470    -2.0850    -0.2730 ha         1 V68       0.126000
     53 H21          2.2000    -2.8650    -0.4250 ha         1 V68       0.118000
     54 H22          4.6080    -2.4070    -0.2740 ha         1 V68       0.130000
     55 H23          3.6280     2.3290     0.9370 ha         1 V68       0.114000
     56 H24          5.9640     1.5600     0.7920 ha         1 V68       0.118000
     57 H25          7.9070     0.6960    -0.3130 h1         1 V68       0.034200
     58 H26          7.8720     0.2360     1.4080 h1         1 V68       0.034200
     59 H27          9.0730    -1.8840     0.8480 hc         1 V68       0.061700
     60 H28          9.3500    -0.7250    -1.9840 hc         1 V68       0.037367
     61 H29         10.1840    -2.1700    -1.3730 hc         1 V68       0.037367
     62 H30          8.4210    -2.1710    -1.5360 hc         1 V68       0.037367
     63 H31         10.3550     0.0870     1.6420 hc         1 V68       0.037367
     64 H32         11.3180    -0.8770     0.5060 hc         1 V68       0.037367
     65 H33         10.5700     0.6440    -0.0320 hc         1 V68       0.037367
@<TRIPOS>BOND
     1     1     2 1   
     2     1     7 1   
     3     1    34 1   
     4     1    35 1   
     5     2     3 1   
     6     2    36 1   
     7     2    37 1   
     8     3     4 1   
     9     3     5 1   
    10     4    38 1   
    11     4    39 1   
    12     4    40 1   
    13     5     6 1   
    14     5    41 1   
    15     5    42 1   
    16     6     7 1   
    17     6    43 1   
    18     6    44 1   
    19     7     8 1   
    20     7    45 1   
    21     8     9 1   
    22     8    46 1   
    23     8    47 1   
    24     9    10 1   
    25     9    11 1   
    26    10    18 2   
    27    11    12 ar  
    28    11    17 ar  
    29    12    13 ar  
    30    13    14 ar  
    31    13    48 1   
    32    14    15 ar  
    33    15    16 1   
    34    15    17 ar  
    35    16    49 1   
    36    16    50 1   
    37    17    18 1   
    38    18    19 1   
    39    19    20 ar  
    40    19    21 ar  
    41    20    25 ar  
    42    20    51 1   
    43    21    22 ar  
    44    21    52 1   
    45    22    23 ar  
    46    22    53 1   
    47    23    24 ar  
    48    23    25 ar  
    49    24    28 ar  
    50    24    54 1   
    51    25    26 ar  
    52    26    27 ar  
    53    26    55 1   
    54    27    28 ar  
    55    27    56 1   
    56    28    29 1   
    57    29    30 1   
    58    30    31 1   
    59    30    57 1   
    60    30    58 1   
    61    31    32 1   
    62    31    33 1   
    63    31    59 1   
    64    32    60 1   
    65    32    61 1   
    66    32    62 1   
    67    33    63 1   
    68    33    64 1   
    69    33    65 1   
@<TRIPOS>SUBSTRUCTURE
     1 V68         1 TEMP              0 ****  ****    0 ROOT
