@<TRIPOS>MOLECULE
V69
   74    74     1     0     0
SMALL
No Charge or Current Charge


@<TRIPOS>ATOM
      1 C01          8.4240    -0.6820    -1.2430 c3         1 V69      -0.089100
      2 C02          7.1360    -0.1860    -0.5580 c3         1 V69      -0.075400
      3 C03          5.9660    -1.1880    -0.6720 c3         1 V69      -0.076400
      4 C04          4.6750    -0.6910     0.0140 c3         1 V69      -0.073400
      5 C05          3.5030    -1.6960    -0.1020 c3         1 V69      -0.077400
      6 C06          2.2110    -1.2410     0.6230 c3         1 V69       0.199300
      7 C08          0.9300     0.8080     0.6730 c          1 V69       0.639100
      8 C24          1.0360    -2.2550     0.4990 c3         1 V69      -0.104400
      9 C25          1.3050    -3.6390     1.1460 c3         1 V69      -0.068400
     10 C26          0.0500    -4.5390     1.2550 c3         1 V69      -0.076400
     11 C27         -0.5240    -5.0400    -0.1000 c3         1 V69      -0.097400
     12 C28         -2.0300    -4.7580    -0.3130 c3         1 V69       0.100000
     13 N29         -2.2930    -3.3350    -0.5460 ns         1 V69      -0.511900
     14 O07          1.7990    -0.0040     0.0080 os         1 V69      -0.466100
     15 O23          0.5060     0.6360     1.8040 o          1 V69      -0.558000
     16 N09          0.4850     1.7640    -0.1920 ns         1 V69      -0.496900
     17 C10         -0.7000     2.6140     0.0440 c3         1 V69       0.050700
     18 C15         -1.8680     2.0560    -0.8140 c          1 V69       0.581100
     19 O22         -1.7200     1.6940    -1.9760 o          1 V69      -0.601100
     20 C11         -0.4110     4.1030    -0.2740 c3         1 V69      -0.078400
     21 C12          0.7520     4.7460     0.5350 c3         1 V69      -0.058700
     22 C13          1.0240     6.1900     0.0560 c3         1 V69      -0.090600
     23 C14          0.5100     4.7120     2.0630 c3         1 V69      -0.090600
     24 N16         -3.0750     1.9290    -0.1570 ns         1 V69      -0.491900
     25 C17         -4.1980     1.1130    -0.6490 c3         1 V69       0.103700
     26 C18         -4.1510    -0.3170    -0.0360 c3         1 V69      -0.078400
     27 C19         -2.7440    -0.9810    -0.0480 c3         1 V69      -0.160400
     28 C30         -2.7550    -2.4450     0.3980 c          1 V69       0.603100
     29 O31         -3.0980    -2.7890     1.5190 o          1 V69      -0.607100
     30 C20         -5.5690     1.8030    -0.4160 c3         1 V69       0.147600
     31 O21         -5.6130     3.0920    -1.0500 oh         1 V69      -0.648000
     32 H1           9.2240     0.0610    -1.1360 hc         1 V69       0.031700
     33 H2           8.7660    -1.6210    -0.7930 hc         1 V69       0.031700
     34 H3           8.2540    -0.8520    -2.3130 hc         1 V69       0.031700
     35 H4           7.3470     0.0080     0.5010 hc         1 V69       0.037700
     36 H5           6.8400     0.7710    -1.0060 hc         1 V69       0.037700
     37 H6           5.7590    -1.3810    -1.7330 hc         1 V69       0.036700
     38 H7           6.2670    -2.1440    -0.2260 hc         1 V69       0.036700
     39 H8           4.8810    -0.5000     1.0750 hc         1 V69       0.045200
     40 H9           4.3820     0.2670    -0.4320 hc         1 V69       0.045200
     41 H10          3.2790    -1.8750    -1.1610 hc         1 V69       0.050700
     42 H11          3.8320    -2.6530     0.3180 hc         1 V69       0.050700
     43 H12          2.4490    -1.0880     1.6860 h1         1 V69       0.066700
     44 H30          0.1470    -1.8300     0.9750 hc         1 V69       0.052700
     45 H31          0.7900    -2.3880    -0.5610 hc         1 V69       0.052700
     46 H32          2.0790    -4.1730     0.5820 hc         1 V69       0.040200
     47 H33          1.7030    -3.4820     2.1570 hc         1 V69       0.040200
     48 H34          0.3080    -5.4150     1.8630 hc         1 V69       0.050200
     49 H35         -0.7200    -4.0060     1.8250 hc         1 V69       0.050200
     50 H36          0.0420    -4.6190    -0.9400 hc         1 V69       0.041700
     51 H37         -0.3710    -6.1250    -0.1550 hc         1 V69       0.041700
     52 H38         -2.3750    -5.3150    -1.1940 h1         1 V69       0.057200
     53 H39         -2.6050    -5.1150     0.5520 h1         1 V69       0.057200
     54 H42         -2.0360    -2.9450    -1.4450 hn         1 V69       0.307500
     55 H40          0.8850     1.7310    -1.1210 hn         1 V69       0.334500
     56 H13         -1.0010     2.5280     1.0950 h1         1 V69       0.083700
     57 H14         -0.1880     4.1920    -1.3450 hc         1 V69       0.062200
     58 H15         -1.3270     4.6830    -0.1020 hc         1 V69       0.062200
     59 H16          1.6640     4.1690     0.3350 hc         1 V69       0.048700
     60 H17          0.1520     6.8310     0.2320 hc         1 V69       0.034700
     61 H18          1.8810     6.6210     0.5880 hc         1 V69       0.034700
     62 H19          1.2520     6.2070    -1.0170 hc         1 V69       0.034700
     63 H20         -0.4250     5.2220     2.3230 hc         1 V69       0.034700
     64 H21          0.4580     3.6820     2.4330 hc         1 V69       0.034700
     65 H22          1.3300     5.2100     2.5950 hc         1 V69       0.034700
     66 H41         -3.1230     2.2830     0.7910 hn         1 V69       0.323500
     67 H23         -4.0870     1.0010    -1.7370 h1         1 V69       0.091700
     68 H24         -4.5050    -0.2750     1.0020 hc         1 V69       0.061700
     69 H25         -4.8570    -0.9550    -0.5810 hc         1 V69       0.061700
     70 H26         -2.3160    -0.9070    -1.0550 hc         1 V69       0.063700
     71 H27         -2.0930    -0.4400     0.6470 hc         1 V69       0.063700
     72 H28         -6.3650     1.1610    -0.8170 h1         1 V69       0.023200
     73 H29         -5.7400     1.9080     0.6640 h1         1 V69       0.023200
     74 H43         -6.4950     3.4800    -0.8520 ho         1 V69       0.443000
@<TRIPOS>BOND
     1     1     2 1   
     2     1    32 1   
     3     1    33 1   
     4     1    34 1   
     5     2     3 1   
     6     2    35 1   
     7     2    36 1   
     8     3     4 1   
     9     3    37 1   
    10     3    38 1   
    11     4     5 1   
    12     4    39 1   
    13     4    40 1   
    14     5     6 1   
    15     5    41 1   
    16     5    42 1   
    17     6     8 1   
    18     6    14 1   
    19     6    43 1   
    20     7    14 1   
    21     7    15 2   
    22     7    16 1   
    23     8     9 1   
    24     8    44 1   
    25     8    45 1   
    26     9    10 1   
    27     9    46 1   
    28     9    47 1   
    29    10    11 1   
    30    10    48 1   
    31    10    49 1   
    32    11    12 1   
    33    11    50 1   
    34    11    51 1   
    35    12    13 1   
    36    12    52 1   
    37    12    53 1   
    38    13    28 1   
    39    13    54 1   
    40    16    17 1   
    41    16    55 1   
    42    17    18 1   
    43    17    20 1   
    44    17    56 1   
    45    18    19 2   
    46    18    24 1   
    47    20    21 1   
    48    20    57 1   
    49    20    58 1   
    50    21    22 1   
    51    21    23 1   
    52    21    59 1   
    53    22    60 1   
    54    22    61 1   
    55    22    62 1   
    56    23    63 1   
    57    23    64 1   
    58    23    65 1   
    59    24    25 1   
    60    24    66 1   
    61    25    26 1   
    62    25    30 1   
    63    25    67 1   
    64    26    27 1   
    65    26    68 1   
    66    26    69 1   
    67    27    28 1   
    68    27    70 1   
    69    27    71 1   
    70    28    29 2   
    71    30    31 1   
    72    30    72 1   
    73    30    73 1   
    74    31    74 1   
@<TRIPOS>SUBSTRUCTURE
     1 V69         1 TEMP              0 ****  ****    0 ROOT
