@<TRIPOS>MOLECULE
V69
   74    74     1     0     0
SMALL
abcg2


@<TRIPOS>ATOM
      1 C01          8.1420    -0.3700    -0.6310 c3         1 V69      -0.089100
      2 C02          6.7700     0.0940    -0.1610 c3         1 V69      -0.075400
      3 C03          5.7060    -0.9900    -0.2750 c3         1 V69      -0.076400
      4 C04          4.3300    -0.5290     0.1910 c3         1 V69      -0.073400
      5 C05          3.2710    -1.6160     0.0420 c3         1 V69      -0.077400
      6 C06          1.9050    -1.2390     0.5900 c3         1 V69       0.199300
      7 C08          0.6110     0.7670     0.4580 c          1 V69       0.639100
      8 C24          0.8480    -2.3190     0.3960 c3         1 V69      -0.104400
      9 C25          1.1790    -3.6400     1.0840 c3         1 V69      -0.068400
     10 C26         -0.0000    -4.6100     1.1050 c3         1 V69      -0.076400
     11 C27         -0.4050    -5.1560    -0.2760 c3         1 V69      -0.097400
     12 C28         -1.8580    -4.8930    -0.6560 c3         1 V69       0.100000
     13 N29         -2.1400    -3.4890    -0.8590 ns         1 V69      -0.511900
     14 O07          1.5000    -0.0460    -0.1100 os         1 V69      -0.466100
     15 O23          0.1160     0.5950     1.5550 o          1 V69      -0.558000
     16 N09          0.3450     1.8200    -0.3440 ns         1 V69      -0.496900
     17 C10         -0.6830     2.7910    -0.0360 c3         1 V69       0.050700
     18 C15         -1.9910     2.3180    -0.6810 c          1 V69       0.581100
     19 O22         -2.2170     2.5040    -1.8680 o          1 V69      -0.601100
     20 C11         -0.2880     4.1790    -0.5210 c3         1 V69      -0.078400
     21 C12          1.0460     4.6860     0.0310 c3         1 V69      -0.058700
     22 C13          1.3160     6.0910    -0.5000 c3         1 V69      -0.090600
     23 C14          1.0870     4.6710     1.5560 c3         1 V69      -0.090600
     24 N16         -2.7990     1.6340     0.1420 ns         1 V69      -0.491900
     25 C17         -4.0420     1.0030    -0.2530 c3         1 V69       0.103700
     26 C18         -4.0600    -0.4690     0.1550 c3         1 V69      -0.078400
     27 C19         -2.9040    -1.2490    -0.4480 c3         1 V69      -0.160400
     28 C30         -2.8890    -2.7140    -0.0540 c          1 V69       0.603100
     29 O31         -3.4870    -3.1350     0.9260 o          1 V69      -0.607100
     30 C20         -5.2330     1.7360     0.3440 c3         1 V69       0.147600
     31 O21         -5.2220     3.0690    -0.1040 oh         1 V69      -0.648000
     32 H1           8.8870     0.4200    -0.5360 hc         1 V69       0.031700
     33 H2           8.4900    -1.2240    -0.0470 hc         1 V69       0.031700
     34 H3           8.1170    -0.6770    -1.6780 hc         1 V69       0.031700
     35 H4           6.8350     0.4290     0.8790 hc         1 V69       0.037700
     36 H5           6.4580     0.9680    -0.7410 hc         1 V69       0.037700
     37 H6           5.6430    -1.3260    -1.3160 hc         1 V69       0.036700
     38 H7           6.0150    -1.8660     0.3060 hc         1 V69       0.036700
     39 H8           4.3880    -0.2190     1.2400 hc         1 V69       0.045200
     40 H9           4.0380     0.3590    -0.3760 hc         1 V69       0.045200
     41 H10          3.1790    -1.9100    -1.0090 hc         1 V69       0.050700
     42 H11          3.6030    -2.5080     0.5800 hc         1 V69       0.050700
     43 H12          2.0010    -1.0090     1.6560 h1         1 V69       0.066700
     44 H30         -0.1000    -1.9560     0.8010 hc         1 V69       0.052700
     45 H31          0.6940    -2.4740    -0.6770 hc         1 V69       0.052700
     46 H32          2.0330    -4.1220     0.5980 hc         1 V69       0.040200
     47 H33          1.4890    -3.4400     2.1150 hc         1 V69       0.040200
     48 H34          0.2520    -5.4460     1.7620 hc         1 V69       0.050200
     49 H35         -0.8510    -4.1120     1.5790 hc         1 V69       0.050200
     50 H36          0.2420    -4.7410    -1.0560 hc         1 V69       0.041700
     51 H37         -0.2460    -6.2360    -0.3130 hc         1 V69       0.041700
     52 H38         -2.1010    -5.4330    -1.5740 h1         1 V69       0.057200
     53 H39         -2.5270    -5.2680     0.1180 h1         1 V69       0.057200
     54 H42         -1.6900    -3.0470    -1.6450 hn         1 V69       0.307500
     55 H40          0.7450     1.8330    -1.2700 hn         1 V69       0.334500
     56 H13         -0.8000     2.8150     1.0470 h1         1 V69       0.083700
     57 H14         -0.2530     4.1860    -1.6140 hc         1 V69       0.062200
     58 H15         -1.0840     4.8740    -0.2340 hc         1 V69       0.062200
     59 H16          1.8420     4.0310    -0.3380 hc         1 V69       0.048700
     60 H17          0.5630     6.7960    -0.1410 hc         1 V69       0.034700
     61 H18          2.2920     6.4550    -0.1750 hc         1 V69       0.034700
     62 H19          1.3000     6.1170    -1.5910 hc         1 V69       0.034700
     63 H20          0.2680     5.2620     1.9740 hc         1 V69       0.034700
     64 H21          1.0110     3.6620     1.9620 hc         1 V69       0.034700
     65 H22          2.0230     5.0960     1.9230 hc         1 V69       0.034700
     66 H41         -2.5220     1.5390     1.1070 hn         1 V69       0.323500
     67 H23         -4.1040     1.0690    -1.3410 h1         1 V69       0.091700
     68 H24         -4.0390    -0.5520     1.2450 hc         1 V69       0.061700
     69 H25         -5.0090    -0.9010    -0.1710 hc         1 V69       0.061700
     70 H26         -2.9050    -1.1530    -1.5370 hc         1 V69       0.063700
     71 H27         -1.9540    -0.8210    -0.1120 hc         1 V69       0.063700
     72 H28         -6.1470     1.2110     0.0380 h1         1 V69       0.023200
     73 H29         -5.1800     1.6730     1.4400 h1         1 V69       0.023200
     74 H43         -5.9420     3.5360     0.3300 ho         1 V69       0.443000
@<TRIPOS>BOND
     1     1     2 1   
     2     1    32 1   
     3     1    33 1   
     4     1    34 1   
     5     2     3 1   
     6     2    35 1   
     7     2    36 1   
     8     3     4 1   
     9     3    37 1   
    10     3    38 1   
    11     4     5 1   
    12     4    39 1   
    13     4    40 1   
    14     5     6 1   
    15     5    41 1   
    16     5    42 1   
    17     6     8 1   
    18     6    14 1   
    19     6    43 1   
    20     7    14 1   
    21     7    15 2   
    22     7    16 1   
    23     8     9 1   
    24     8    44 1   
    25     8    45 1   
    26     9    10 1   
    27     9    46 1   
    28     9    47 1   
    29    10    11 1   
    30    10    48 1   
    31    10    49 1   
    32    11    12 1   
    33    11    50 1   
    34    11    51 1   
    35    12    13 1   
    36    12    52 1   
    37    12    53 1   
    38    13    28 1   
    39    13    54 1   
    40    16    17 1   
    41    16    55 1   
    42    17    18 1   
    43    17    20 1   
    44    17    56 1   
    45    18    19 2   
    46    18    24 1   
    47    20    21 1   
    48    20    57 1   
    49    20    58 1   
    50    21    22 1   
    51    21    23 1   
    52    21    59 1   
    53    22    60 1   
    54    22    61 1   
    55    22    62 1   
    56    23    63 1   
    57    23    64 1   
    58    23    65 1   
    59    24    25 1   
    60    24    66 1   
    61    25    26 1   
    62    25    30 1   
    63    25    67 1   
    64    26    27 1   
    65    26    68 1   
    66    26    69 1   
    67    27    28 1   
    68    27    70 1   
    69    27    71 1   
    70    28    29 2   
    71    30    31 1   
    72    30    72 1   
    73    30    73 1   
    74    31    74 1   
@<TRIPOS>SUBSTRUCTURE
     1 V69         1 TEMP              0 ****  ****    0 ROOT
