@<TRIPOS>MOLECULE
V6A
   44    46     1     0     0
SMALL
No Charge or Current Charge


@<TRIPOS>ATOM
      1 C10         22.6650    20.7560    29.6400 cc         1 V6A       0.416400
      2 C11         21.5530    22.7800    30.7300 c3         1 V6A       0.095600
      3 C12         21.9780    24.0430    29.9510 c3         1 V6A      -0.165400
      4 C13         20.9790    24.3690    28.8300 c          1 V6A       0.640100
      5 C14         23.5740    24.0440    26.3560 ca         1 V6A       0.524900
      6 C15         24.5860    23.3180    25.6490 ca         1 V6A       0.242900
      7 C16         25.5410    25.2950    24.9730 ca         1 V6A       0.236900
      8 C17         24.5390    26.0150    25.6790 ca         1 V6A       0.333900
      9 C01         19.7800    17.1830    26.3900 ca         1 V6A      -0.213800
     10 C02         18.4150    17.4980    26.2330 ca         1 V6A      -0.008000
     11 C03         17.8610    18.6300    26.8650 ca         1 V6A      -0.213800
     12 C04         18.6860    19.4440    27.6700 ca         1 V6A      -0.008500
     13 C05         20.0580    19.1520    27.8310 ca         1 V6A      -0.120500
     14 C06         20.5950    18.0200    27.1800 ca         1 V6A      -0.008500
     15 C08         16.3730    18.9590    26.7030 c3         1 V6A       0.361300
     16 C09         20.9200    20.0180    28.6640 cd         1 V6A       0.570500
     17 F01         20.8550    16.2810    24.4640 f          1 V6A      -0.110500
     18 F02         19.4740    14.9690    25.5130 f          1 V6A      -0.110500
     19 F03         21.4080    15.4200    26.3820 f          1 V6A      -0.110500
     20 F04         15.8750    18.5310    25.5200 f          1 V6A      -0.110500
     21 F05         16.1310    20.2890    26.7620 f          1 V6A      -0.110500
     22 F06         15.6340    18.3800    27.6760 f          1 V6A      -0.110500
     23 N01         22.2710    19.7810    28.8410 nd         1 V6A      -0.693000
     24 N02         21.5810    21.5560    29.9120 na         1 V6A      -0.051700
     25 N03         20.4640    21.0900    29.2970 nc         1 V6A      -0.521800
     26 N04         21.3440    24.1000    27.5100 ns         1 V6A      -0.331300
     27 N05         22.5570    23.4080    27.0880 nu         1 V6A      -0.693100
     28 N06         25.5810    23.9330    24.9470 nb         1 V6A      -0.599000
     29 N07         23.5460    25.3990    26.3800 nb         1 V6A      -0.700000
     30 O01         19.9000    24.8920    29.0740 o          1 V6A      -0.579100
     31 H1          23.6610    20.9410    30.0250 h5         1 V6A       0.068100
     32 H2          22.2280    22.6400    31.5850 h1         1 V6A       0.076700
     33 H3          20.5400    22.9180    31.1310 h1         1 V6A       0.076700
     34 H4          22.9880    23.8870    29.5570 hc         1 V6A       0.083200
     35 H5          21.9880    24.8820    30.6540 hc         1 V6A       0.083200
     36 H6          24.5930    22.2290    25.6480 h4         1 V6A       0.031100
     37 H7          26.3210    25.8200    24.4230 h4         1 V6A       0.036100
     38 H8          24.5370    27.1050    25.6820 h4         1 V6A       0.032100
     39 H9          17.7820    16.8600    25.6180 ha         1 V6A       0.145000
     40 H10         18.2570    20.3100    28.1710 ha         1 V6A       0.154500
     41 H11         21.6530    17.7890    27.2910 ha         1 V6A       0.154500
     42 H12         20.6660    24.3580    26.7950 hn         1 V6A       0.326500
     43 H13         22.4490    22.3960    26.9470 hn         1 V6A       0.515000
     44 C07         20.3800    15.9590    25.6880 c3         1 V6A       0.361300
@<TRIPOS>BOND
     1     1    23 2   
     2     1    24 1   
     3     1    31 1   
     4     2     3 1   
     5     2    24 1   
     6     2    32 1   
     7     2    33 1   
     8     3     4 1   
     9     3    34 1   
    10     3    35 1   
    11     4    26 1   
    12     4    30 2   
    13     5     6 ar  
    14     5    27 1   
    15     5    29 ar  
    16     6    28 ar  
    17     6    36 1   
    18     7     8 ar  
    19     7    28 ar  
    20     7    37 1   
    21     8    29 ar  
    22     8    38 1   
    23     9    10 ar  
    24     9    14 ar  
    25     9    44 1   
    26    10    11 ar  
    27    10    39 1   
    28    11    12 ar  
    29    11    15 1   
    30    12    13 ar  
    31    12    40 1   
    32    13    14 ar  
    33    13    16 1   
    34    14    41 1   
    35    15    20 1   
    36    15    21 1   
    37    15    22 1   
    38    16    23 1   
    39    16    25 2   
    40    17    44 1   
    41    18    44 1   
    42    19    44 1   
    43    24    25 1   
    44    26    27 1   
    45    26    42 1   
    46    27    43 1   
@<TRIPOS>SUBSTRUCTURE
     1 V6A         1 TEMP              0 ****  ****    0 ROOT
