@<TRIPOS>MOLECULE
V6A
   44    46     1     0     0
SMALL
abcg2


@<TRIPOS>ATOM
      1 C10         22.4490    19.9800    30.4260 cc         1 V6A       0.416400
      2 C11         22.2210    22.4840    30.3750 c3         1 V6A       0.095600
      3 C12         22.4860    23.3420    29.1510 c3         1 V6A      -0.165400
      4 C13         21.2140    23.7580    28.4470 c          1 V6A       0.640100
      5 C14         23.1750    24.7250    26.0640 ca         1 V6A       0.524900
      6 C15         24.1630    24.6110    25.0680 ca         1 V6A       0.242900
      7 C16         24.8280    26.7350    25.4970 ca         1 V6A       0.236900
      8 C17         23.8540    26.8400    26.4700 ca         1 V6A       0.333900
      9 C01         19.3870    16.7180    27.1510 ca         1 V6A      -0.213800
     10 C02         18.4930    17.3890    26.3230 ca         1 V6A      -0.008000
     11 C03         18.4270    18.7700    26.3800 ca         1 V6A      -0.213800
     12 C04         19.2410    19.4810    27.2520 ca         1 V6A      -0.008500
     13 C05         20.1310    18.8080    28.0780 ca         1 V6A      -0.120500
     14 C06         20.2010    17.4180    28.0230 ca         1 V6A      -0.008500
     15 C08         17.4620    19.5310    25.5230 c3         1 V6A       0.361300
     16 C09         20.9980    19.5480    28.9940 cd         1 V6A       0.570500
     17 F01         19.8300    14.8250    25.8400 f          1 V6A      -0.110500
     18 F02         18.2550    14.6660    27.2920 f          1 V6A      -0.110500
     19 F03         20.3080    14.6930    27.9340 f          1 V6A      -0.110500
     20 F04         16.8970    18.7680    24.5850 f          1 V6A      -0.110500
     21 F05         18.0580    20.5530    24.8970 f          1 V6A      -0.110500
     22 F06         16.4690    20.0560    26.2540 f          1 V6A      -0.110500
     23 N01         21.8970    18.9600    29.8120 nd         1 V6A      -0.693000
     24 N02         21.9020    21.1210    29.9980 na         1 V6A      -0.051700
     25 N03         20.9750    20.8600    29.0830 nc         1 V6A      -0.521800
     26 N04         21.2420    23.8220    27.0920 ns         1 V6A      -0.331300
     27 N05         22.3760    23.6510    26.3610 nu         1 V6A      -0.693100
     28 N06         24.9740    25.6080    24.7970 nb         1 V6A      -0.599000
     29 N07         23.0280    25.8390    26.7580 nb         1 V6A      -0.700000
     30 O01         20.2040    24.0590    29.0560 o          1 V6A      -0.579100
     31 H1          23.2320    19.9430    31.1680 h5         1 V6A       0.068100
     32 H2          23.1090    22.4400    31.0020 h1         1 V6A       0.076700
     33 H3          21.4080    22.8910    30.9760 h1         1 V6A       0.076700
     34 H4          23.1890    22.8430    28.4870 hc         1 V6A       0.083200
     35 H5          22.9740    24.2640    29.4820 hc         1 V6A       0.083200
     36 H6          24.2730    23.6940    24.4980 h4         1 V6A       0.031100
     37 H7          25.4940    27.5590    25.2750 h4         1 V6A       0.036100
     38 H8          23.7330    27.7560    27.0370 h4         1 V6A       0.032100
     39 H9          17.8600    16.8350    25.6420 ha         1 V6A       0.145000
     40 H10         19.1930    20.5620    27.2980 ha         1 V6A       0.154500
     41 H11         20.9010    16.9040    28.6680 ha         1 V6A       0.154500
     42 H12         20.4440    24.2420    26.6310 hn         1 V6A       0.326500
     43 H13         22.3640    22.8730    25.7200 hn         1 V6A       0.515000
     44 C07         19.4500    15.2240    27.0610 c3         1 V6A       0.361300
@<TRIPOS>BOND
     1     1    23 2   
     2     1    24 1   
     3     1    31 1   
     4     2     3 1   
     5     2    24 1   
     6     2    32 1   
     7     2    33 1   
     8     3     4 1   
     9     3    34 1   
    10     3    35 1   
    11     4    26 1   
    12     4    30 2   
    13     5     6 ar  
    14     5    27 1   
    15     5    29 ar  
    16     6    28 ar  
    17     6    36 1   
    18     7     8 ar  
    19     7    28 ar  
    20     7    37 1   
    21     8    29 ar  
    22     8    38 1   
    23     9    10 ar  
    24     9    14 ar  
    25     9    44 1   
    26    10    11 ar  
    27    10    39 1   
    28    11    12 ar  
    29    11    15 1   
    30    12    13 ar  
    31    12    40 1   
    32    13    14 ar  
    33    13    16 1   
    34    14    41 1   
    35    15    20 1   
    36    15    21 1   
    37    15    22 1   
    38    16    23 1   
    39    16    25 2   
    40    17    44 1   
    41    18    44 1   
    42    19    44 1   
    43    24    25 1   
    44    26    27 1   
    45    26    42 1   
    46    27    43 1   
@<TRIPOS>SUBSTRUCTURE
     1 V6A         1 TEMP              0 ****  ****    0 ROOT
