@<TRIPOS>MOLECULE
V6B
   65    68     1     0     0
SMALL
No Charge or Current Charge


@<TRIPOS>ATOM
      1 N1           6.9310    11.6530   -17.2280 n          1 V6B      -0.454800
      2 C2           7.2650     9.3910   -16.1490 c3         1 V6B      -0.132400
      3 O2           6.4370    10.7850   -19.3310 o          1 V6B      -0.534000
      4 C4           7.5400    12.8570   -16.6570 c5         1 V6B       0.068000
      5 N4          10.6740     4.5220   -12.7580 nb         1 V6B      -0.343000
      6 C5           7.6730    13.7230   -17.9420 c5         1 V6B       0.141600
      7 C6           6.8650    11.6770   -18.6150 c          1 V6B       0.693100
      8 C17         11.2080     1.2680   -10.8220 ca         1 V6B      -0.002900
      9 C16         10.1400     0.3600   -10.7210 ca         1 V6B      -0.090000
     10 C14          9.5270    -0.1650   -11.8730 ca         1 V6B      -0.048300
     11 C15          8.3570    -1.1330   -11.7350 c3         1 V6B      -0.050800
     12 C13         10.0110     0.2230   -13.1400 ca         1 V6B      -0.010900
     13 Br           9.2240    -0.4520   -14.7540 br         1 V6B      -0.093100
     14 C12         11.0860     1.1210   -13.2440 ca         1 V6B      -0.069000
     15 C11         11.6920     1.6660   -12.0920 ca         1 V6B      -0.062300
     16 C10         12.8650     2.6490   -12.2360 c3         1 V6B       0.287100
     17 C9          11.7690     4.5820   -13.5200 ca         1 V6B       0.431900
     18 N2          12.0690     5.5260   -14.4170 nb         1 V6B      -0.287000
     19 C8          11.1790     6.5240   -14.5510 ca         1 V6B       0.204900
     20 C18          9.7830     5.5170   -12.8950 ca         1 V6B       0.469900
     21 N5           8.6160     5.4470   -12.1430 nu         1 V6B      -0.900100
     22 C19          8.7500     4.8040   -10.8120 c5         1 V6B       0.233500
     23 C23          8.1130     3.4040   -10.9720 c5         1 V6B      -0.095400
     24 C22          7.8470     3.0420    -9.4850 c5         1 V6B      -0.077400
     25 C21          7.4920     4.4110    -8.8080 c5         1 V6B      -0.077400
     26 C20          7.6690     5.4760    -9.9330 c5         1 V6B      -0.095400
     27 C7           9.9920     6.5780   -13.7940 ca         1 V6B      -0.404600
     28 C            9.0210     7.7120   -13.9560 c          1 V6B       0.648700
     29 O            8.0380     7.8500   -13.2420 o          1 V6B      -0.655100
     30 N            9.3080     8.6160   -14.9510 ns         1 V6B      -0.496900
     31 C1           8.4850     9.7780   -15.2900 c3         1 V6B       0.105000
     32 C3           6.3100    10.5640   -16.4490 c3         1 V6B       0.135000
     33 O1           7.4420    12.8270   -19.0590 os         1 V6B      -0.416100
     34 H1           6.6950     8.6110   -15.6300 hc         1 V6B       0.065700
     35 H2           7.6090     8.9560   -17.0940 hc         1 V6B       0.065700
     36 H4           8.5190    12.6440   -16.2100 h1         1 V6B       0.056700
     37 H5           6.8970    13.3310   -15.9030 h1         1 V6B       0.056700
     38 H6           8.6590    14.1960   -18.0350 h1         1 V6B       0.067200
     39 H7           6.9050    14.5080   -17.9620 h1         1 V6B       0.067200
     40 H8           9.7800     0.0700    -9.7360 ha         1 V6B       0.130000
     41 H9           8.5870    -2.0990   -12.2000 hc         1 V6B       0.053033
     42 H10          8.1100    -1.3260   -10.6840 hc         1 V6B       0.053033
     43 H11          7.4560    -0.7320   -12.2140 hc         1 V6B       0.053033
     44 H12         11.4450     1.4030   -14.2310 ha         1 V6B       0.139000
     45 H13         13.7850     2.0610   -12.3560 h1         1 V6B       0.070200
     46 H14         12.9850     3.2400   -11.3190 h1         1 V6B       0.070200
     47 H15         11.4440     7.2890   -15.2780 h4         1 V6B       0.009100
     48 H16          8.0610     6.3040   -12.2520 hn         1 V6B       0.537000
     49 H17          9.7500     4.8130   -10.3490 h1         1 V6B       0.077700
     50 H18          7.1770     3.4290   -11.5440 hc         1 V6B       0.052450
     51 H19          8.7780     2.6930   -11.4710 hc         1 V6B       0.052450
     52 H20          7.0410     2.3060    -9.3830 hc         1 V6B       0.043200
     53 H21          8.7390     2.6030    -9.0230 hc         1 V6B       0.043200
     54 H22          6.4720     4.4190    -8.4060 hc         1 V6B       0.043200
     55 H23          8.1650     4.6100    -7.9660 hc         1 V6B       0.043200
     56 H24          7.9890     6.4480    -9.5430 hc         1 V6B       0.052450
     57 H25          6.7240     5.6310   -10.4690 hc         1 V6B       0.052450
     58 H26         10.1390     8.4400   -15.4990 hn         1 V6B       0.313500
     59 H27          9.1110    10.4920   -15.8400 h1         1 V6B       0.053200
     60 H28          8.1500    10.2640   -14.3630 h1         1 V6B       0.053200
     61 H29          5.9420    10.9770   -15.5000 h1         1 V6B       0.057700
     62 H30          5.4350    10.1840   -16.9940 h1         1 V6B       0.057700
     63 N3          12.7180     3.5840   -13.3740 nu         1 V6B      -0.927100
     64 Br1         11.9620     1.9350    -9.1870 br         1 V6B      -0.098100
     65 H3          13.5320     3.6980   -13.9800 hn         1 V6B       0.515000
@<TRIPOS>BOND
     1     1     4 1   
     2     1     7 1   
     3     1    32 1   
     4     2    31 1   
     5     2    32 1   
     6     2    34 1   
     7     2    35 1   
     8     3     7 2   
     9     4     6 1   
    10     4    36 1   
    11     4    37 1   
    12     5    17 ar  
    13     5    20 ar  
    14     6    33 1   
    15     6    38 1   
    16     6    39 1   
    17     7    33 1   
    18     8     9 ar  
    19     8    15 ar  
    20     8    64 1   
    21     9    10 ar  
    22     9    40 1   
    23    10    11 1   
    24    10    12 ar  
    25    11    41 1   
    26    11    42 1   
    27    11    43 1   
    28    12    13 1   
    29    12    14 ar  
    30    14    15 ar  
    31    14    44 1   
    32    15    16 1   
    33    16    45 1   
    34    16    46 1   
    35    16    63 1   
    36    17    18 ar  
    37    17    63 1   
    38    18    19 ar  
    39    19    27 ar  
    40    19    47 1   
    41    20    21 1   
    42    20    27 ar  
    43    21    22 1   
    44    21    48 1   
    45    22    23 1   
    46    22    26 1   
    47    22    49 1   
    48    23    24 1   
    49    23    50 1   
    50    23    51 1   
    51    24    25 1   
    52    24    52 1   
    53    24    53 1   
    54    25    26 1   
    55    25    54 1   
    56    25    55 1   
    57    26    56 1   
    58    26    57 1   
    59    27    28 1   
    60    28    29 2   
    61    28    30 1   
    62    30    31 1   
    63    30    58 1   
    64    31    59 1   
    65    31    60 1   
    66    32    61 1   
    67    32    62 1   
    68    63    65 1   
@<TRIPOS>SUBSTRUCTURE
     1 V6B         1 TEMP              0 ****  ****    0 ROOT
