@<TRIPOS>MOLECULE
V6B
   65    68     1     0     0
SMALL
bcc


@<TRIPOS>ATOM
      1 N1           6.7880    11.3380   -17.2220 n          1 V6B      -0.521800
      2 C2           7.2550     9.2140   -15.9810 c3         1 V6B      -0.132400
      3 O2           6.7120    10.1210   -19.1690 o          1 V6B      -0.609500
      4 C4           7.3100    12.6200   -16.8110 c5         1 V6B       0.068000
      5 N4          10.9440     4.8380   -12.4210 nb         1 V6B      -0.869000
      6 C5           7.5180    13.2910   -18.1700 c5         1 V6B       0.118400
      7 C6           6.9640    11.1210   -18.5390 c          1 V6B       0.835600
      8 C17         11.0900     1.0670   -10.9710 ca         1 V6B      -0.002900
      9 C16         10.0350     0.1700   -11.0410 ca         1 V6B      -0.108000
     10 C14          9.3520    -0.0540   -12.2320 ca         1 V6B      -0.048300
     11 C15          8.2160    -1.0290   -12.2770 c3         1 V6B      -0.050800
     12 C13          9.7910     0.6650   -13.3430 ca         1 V6B      -0.010900
     13 BR           8.9280     0.4350   -15.0090 br         1 V6B      -0.093100
     14 C12         10.8450     1.5590   -13.2750 ca         1 V6B      -0.087000
     15 C11         11.5200     1.7870   -12.0820 ca         1 V6B      -0.062300
     16 C10         12.6720     2.7670   -12.0190 c3         1 V6B       0.287100
     17 C9          11.9360     4.7180   -13.2870 ca         1 V6B       0.957900
     18 N2          12.2100     5.5510   -14.3040 nb         1 V6B      -0.813000
     19 C8          11.3680     6.5580   -14.4340 ca         1 V6B       0.533200
     20 C18         10.1020     5.8640   -12.5500 ca         1 V6B       0.798200
     21 N5           9.1260     5.9620   -11.6480 nu         1 V6B      -0.844900
     22 C19          8.8800     4.9860   -10.6120 c5         1 V6B       0.233500
     23 C23          8.1280     3.7320   -11.0680 c5         1 V6B      -0.095400
     24 C22          7.6140     3.1140    -9.7620 c5         1 V6B      -0.077400
     25 C21          7.5620     4.2750    -8.7360 c5         1 V6B      -0.077400
     26 C20          7.9840     5.5310    -9.5050 c5         1 V6B      -0.095400
     27 C7          10.2650     6.7980   -13.6230 ca         1 V6B      -0.535200
     28 C            9.3340     7.9230   -13.8300 c          1 V6B       0.715700
     29 O            8.4940     8.2310   -12.9810 o          1 V6B      -0.655100
     30 N            9.4370     8.6160   -14.9810 ns         1 V6B      -0.563900
     31 C1           8.5430     9.7000   -15.3240 c3         1 V6B       0.105000
     32 C3           6.2770    10.3340   -16.3150 c3         1 V6B       0.135000
     33 O1           7.4850    12.2190   -19.1160 os         1 V6B      -0.392900
     34 H1           6.7450     8.5210   -15.3070 hc         1 V6B       0.065700
     35 H2           7.4970     8.6520   -16.8850 hc         1 V6B       0.065700
     36 H4           8.2430    12.5220   -16.2500 h1         1 V6B       0.056700
     37 H5           6.5970    13.1640   -16.1900 h1         1 V6B       0.056700
     38 H6           8.4730    13.8060   -18.2490 h1         1 V6B       0.067200
     39 H7           6.7160    13.9930   -18.4030 h1         1 V6B       0.067200
     40 H8           9.7250    -0.3730   -10.1570 ha         1 V6B       0.148000
     41 H9           8.4060    -1.8320   -12.9890 hc         1 V6B       0.053033
     42 H10          8.0600    -1.4800   -11.2990 hc         1 V6B       0.053033
     43 H11          7.2850    -0.5440   -12.5740 hc         1 V6B       0.053033
     44 H12         11.1570     2.0990   -14.1590 ha         1 V6B       0.157000
     45 H13         13.6120     2.2140   -11.9710 h1         1 V6B       0.070200
     46 H14         12.6030     3.3480   -11.0970 h1         1 V6B       0.070200
     47 H15         11.6060     7.2390   -15.2460 h4         1 V6B       0.009100
     48 H16          8.4950     6.7450   -11.7580 hn         1 V6B       0.481800
     49 H17          9.8370     4.6850   -10.1770 h1         1 V6B       0.077700
     50 H18          7.2940     4.0390   -11.7050 hc         1 V6B       0.052450
     51 H19          8.7540     3.0530   -11.6480 hc         1 V6B       0.052450
     52 H20          6.6400     2.6440    -9.9000 hc         1 V6B       0.043200
     53 H21          8.2900     2.3300    -9.4150 hc         1 V6B       0.043200
     54 H22          6.5760     4.3890    -8.2870 hc         1 V6B       0.043200
     55 H23          8.2590     4.0870    -7.9190 hc         1 V6B       0.043200
     56 H24          8.4840     6.2690    -8.8770 hc         1 V6B       0.052450
     57 H25          7.1110     6.0190    -9.9520 hc         1 V6B       0.052450
     58 H26         10.0100     8.2630   -15.7270 hn         1 V6B       0.313500
     59 H27          9.0890    10.3600   -16.0010 h1         1 V6B       0.053200
     60 H28          8.3190    10.2780   -14.4270 h1         1 V6B       0.053200
     61 H29          5.9730    10.8510   -15.4040 h1         1 V6B       0.057700
     62 H30          5.3700     9.9020   -16.7420 h1         1 V6B       0.057700
     63 N3          12.7540     3.6580   -13.1400 nu         1 V6B      -0.871900
     64 BR1         11.9460     1.2810    -9.2970 br         1 V6B      -0.098100
     65 H3          13.5270     3.5790   -13.7790 hn         1 V6B       0.459800
@<TRIPOS>BOND
     1     1     4 1   
     2     1     7 1   
     3     1    32 1   
     4     2    31 1   
     5     2    32 1   
     6     2    34 1   
     7     2    35 1   
     8     3     7 2   
     9     4     6 1   
    10     4    36 1   
    11     4    37 1   
    12     5    17 ar  
    13     5    20 ar  
    14     6    33 1   
    15     6    38 1   
    16     6    39 1   
    17     7    33 1   
    18     8     9 ar  
    19     8    15 ar  
    20     8    64 1   
    21     9    10 ar  
    22     9    40 1   
    23    10    11 1   
    24    10    12 ar  
    25    11    41 1   
    26    11    42 1   
    27    11    43 1   
    28    12    13 1   
    29    12    14 ar  
    30    14    15 ar  
    31    14    44 1   
    32    15    16 1   
    33    16    45 1   
    34    16    46 1   
    35    16    63 1   
    36    17    18 ar  
    37    17    63 1   
    38    18    19 ar  
    39    19    27 ar  
    40    19    47 1   
    41    20    21 1   
    42    20    27 ar  
    43    21    22 1   
    44    21    48 1   
    45    22    23 1   
    46    22    26 1   
    47    22    49 1   
    48    23    24 1   
    49    23    50 1   
    50    23    51 1   
    51    24    25 1   
    52    24    52 1   
    53    24    53 1   
    54    25    26 1   
    55    25    54 1   
    56    25    55 1   
    57    26    56 1   
    58    26    57 1   
    59    27    28 1   
    60    28    29 2   
    61    28    30 1   
    62    30    31 1   
    63    30    58 1   
    64    31    59 1   
    65    31    60 1   
    66    32    61 1   
    67    32    62 1   
    68    63    65 1   
@<TRIPOS>SUBSTRUCTURE
     1 V6B         1 TEMP              0 ****  ****    0 ROOT
