@<TRIPOS>MOLECULE
V6C
   21    22     1     0     0
SMALL
abcg2


@<TRIPOS>ATOM
      1 C22        -16.9630   -15.9400    -8.6870 ca         1 V6C      -0.125000
      2 C23        -18.1140   -16.6080    -9.0750 ca         1 V6C      -0.060000
      3 C24        -19.1390   -16.8740    -8.1710 ca         1 V6C      -0.188000
      4 C01        -21.1300   -17.3770    -6.2290 c3         1 V6C       0.147900
      5 C03        -19.0070   -16.4650    -6.8420 ca         1 V6C       0.155100
      6 C04        -17.8480   -15.8030    -6.4300 ca         1 V6C      -0.156000
      7 C05        -16.8510   -15.5480    -7.3560 ca         1 V6C       0.037800
      8 C07        -15.5420   -13.8610    -6.0370 cc         1 V6C       0.400400
      9 N06        -15.6800   -14.8570    -6.9290 na         1 V6C       0.000500
     10 N19        -14.2720   -13.5300    -5.9680 nd         1 V6C      -0.384000
     11 N20        -13.6300   -14.3470    -6.8400 nd         1 V6C      -0.042000
     12 N21        -14.4570   -15.1440    -7.4200 nc         1 V6C      -0.193800
     13 O02        -19.9360   -16.6740    -5.8780 os         1 V6C      -0.345100
     14 H1         -16.1750   -15.7190    -9.3920 ha         1 V6C       0.145000
     15 H2         -18.2260   -16.9220   -10.1040 ha         1 V6C       0.124000
     16 H3         -20.0240   -17.3930    -8.5060 ha         1 V6C       0.125000
     17 H4         -21.7160   -17.4380    -5.3150 h1         1 V6C       0.047033
     18 H5         -21.6930   -16.8350    -6.9920 h1         1 V6C       0.047033
     19 H6         -20.9000   -18.3830    -6.5870 h1         1 V6C       0.047033
     20 H7         -17.7410   -15.5140    -5.3940 ha         1 V6C       0.139000
     21 H8         -16.3570   -13.4140    -5.4950 h5         1 V6C       0.077100
@<TRIPOS>BOND
     1     1     2 ar  
     2     1     7 ar  
     3     1    14 1   
     4     2     3 ar  
     5     2    15 1   
     6     3     5 ar  
     7     3    16 1   
     8     4    13 1   
     9     4    17 1   
    10     4    18 1   
    11     4    19 1   
    12     5     6 ar  
    13     5    13 1   
    14     6     7 ar  
    15     6    20 1   
    16     7     9 1   
    17     8     9 1   
    18     8    10 2   
    19     8    21 1   
    20     9    12 1   
    21    10    11 1   
    22    11    12 2   
@<TRIPOS>SUBSTRUCTURE
     1 V6C         1 TEMP              0 ****  ****    0 ROOT
