@<TRIPOS>MOLECULE
V6C
   21    22     1     0     0
SMALL
No Charge or Current Charge


@<TRIPOS>ATOM
      1 C22        -16.9460   -15.9200    -8.7080 ca         1 V6C      -0.125000
      2 C23        -18.1110   -16.5920    -9.1130 ca         1 V6C      -0.060000
      3 C24        -19.1260   -16.8670    -8.1820 ca         1 V6C      -0.188000
      4 C01        -21.1670   -17.3930    -6.1790 c3         1 V6C       0.147900
      5 C03        -18.9760   -16.4660    -6.8370 ca         1 V6C       0.155100
      6 C04        -17.8100   -15.7940    -6.4390 ca         1 V6C      -0.156000
      7 C05        -16.7850   -15.5130    -7.3670 ca         1 V6C       0.037800
      8 C07        -15.5750   -13.8260    -6.0520 cc         1 V6C       0.400400
      9 N06        -15.6260   -14.8400    -6.9650 na         1 V6C       0.000500
     10 N19        -14.2930   -13.5270    -5.9270 nd         1 V6C      -0.384000
     11 N20        -13.6010   -14.3850    -6.7650 nd         1 V6C      -0.042000
     12 N21        -14.4000   -15.2050    -7.4000 nc         1 V6C      -0.193800
     13 O02        -19.9370   -16.7100    -5.8780 os         1 V6C      -0.345100
     14 H1         -16.1700   -15.7100    -9.4410 ha         1 V6C       0.145000
     15 H2         -18.2260   -16.9000   -10.1510 ha         1 V6C       0.124000
     16 H3         -20.0170   -17.3880    -8.5210 ha         1 V6C       0.125000
     17 H4         -21.7850   -17.4810    -5.2760 h1         1 V6C       0.047033
     18 H5         -21.7450   -16.8430    -6.9330 h1         1 V6C       0.047033
     19 H6         -20.9710   -18.4050    -6.5550 h1         1 V6C       0.047033
     20 H7         -17.7060   -15.5010    -5.3970 ha         1 V6C       0.139000
     21 H8         -16.4310   -13.3800    -5.5620 h5         1 V6C       0.077100
@<TRIPOS>BOND
     1     1     2 ar  
     2     1     7 ar  
     3     1    14 1   
     4     2     3 ar  
     5     2    15 1   
     6     3     5 ar  
     7     3    16 1   
     8     4    13 1   
     9     4    17 1   
    10     4    18 1   
    11     4    19 1   
    12     5     6 ar  
    13     5    13 1   
    14     6     7 ar  
    15     6    20 1   
    16     7     9 1   
    17     8     9 1   
    18     8    10 2   
    19     8    21 1   
    20     9    12 1   
    21    10    11 1   
    22    11    12 2   
@<TRIPOS>SUBSTRUCTURE
     1 V6C         1 TEMP              0 ****  ****    0 ROOT
