@<TRIPOS>MOLECULE
V6D
   81    82     1     0     0
SMALL
No Charge or Current Charge


@<TRIPOS>ATOM
      1 C10        -22.2220   -49.7420   -34.3960 c2         1 V6D      -0.063400
      2 C13        -21.9580   -46.3260   -32.8020 ce         1 V6D      -0.290200
      3 C17        -23.9640   -43.2100   -32.8120 c3         1 V6D       0.219500
      4 C21        -26.7450   -45.6430   -30.4910 cc         1 V6D       0.289300
      5 C22        -25.8620   -46.0330   -29.5150 cd         1 V6D      -0.267000
      6 C24        -23.2830   -42.0030   -33.4300 c2         1 V6D      -0.255200
      7 C26        -23.6630   -42.6190   -35.8510 c3         1 V6D      -0.064900
      8 C28        -22.3680   -39.9460   -36.4000 ce         1 V6D      -0.160000
      9 C01        -28.0270   -46.3490   -30.8430 c3         1 V6D      -0.097700
     10 C02        -27.8950   -47.2320   -32.1100 c3         1 V6D      -0.116400
     11 C03        -26.9050   -48.4170   -31.9680 c3         1 V6D       0.169500
     12 C04        -26.6030   -49.0820   -33.3240 c3         1 V6D      -0.133400
     13 C05        -25.3750   -49.9950   -33.3670 c          1 V6D       0.612100
     14 O06        -24.5930   -50.1630   -32.4410 o          1 V6D      -0.472000
     15 O07        -25.2750   -50.6030   -34.5940 os         1 V6D      -0.469100
     16 C08        -24.1300   -51.4250   -34.8920 c3         1 V6D       0.183300
     17 C09        -22.9960   -50.5220   -35.4500 c3         1 V6D      -0.072200
     18 C11        -22.4410   -48.4250   -34.1520 cf         1 V6D      -0.214000
     19 C12        -21.6820   -47.6010   -33.2090 cf         1 V6D      -0.072000
     20 C14        -23.1220   -45.4650   -33.1520 c          1 V6D       0.608300
     21 O15        -24.0950   -45.8230   -33.7990 o          1 V6D      -0.498000
     22 O16        -22.9450   -44.2080   -32.6320 os         1 V6D      -0.455100
     23 C18        -24.5550   -42.8980   -31.4250 c3         1 V6D      -0.107700
     24 C19        -25.2110   -44.0910   -30.7940 cd         1 V6D       0.436700
     25 N20        -26.3880   -44.5340   -31.2110 nc         1 V6D      -0.655000
     26 S23        -24.4610   -44.9800   -29.4740 ss         1 V6D      -0.013400
     27 C25        -23.1500   -41.7010   -34.7460 cf         1 V6D      -0.031200
     28 C27        -22.4400   -40.4820   -35.1440 cf         1 V6D      -0.190000
     29 C29        -21.6590   -38.7120   -36.7960 ce         1 V6D      -0.086200
     30 C30        -21.8350   -38.2150   -38.0460 c2         1 V6D      -0.199200
     31 C31        -21.2140   -36.9800   -38.6720 c3         1 V6D       0.198000
     32 N32        -20.1610   -37.3220   -39.6550 n3         1 V6D      -0.712600
     33 C33        -19.7370   -36.1510   -40.4530 c3         1 V6D       0.149100
     34 C34        -19.0070   -38.0380   -39.0600 c3         1 V6D       0.149100
     35 C35        -20.7080   -38.0880   -35.7780 c3         1 V6D      -0.054900
     36 C36        -21.1670   -50.5820   -33.6890 c3         1 V6D      -0.062900
     37 C37        -24.6110   -52.4590   -35.9290 c3         1 V6D      -0.096100
     38 N38        -27.4530   -49.4110   -31.0280 n8         1 V6D      -0.986200
     39 H131       -21.2490   -45.8500   -32.1280 ha         1 V6D       0.195000
     40 H171       -24.7810   -43.5470   -33.4660 h1         1 V6D       0.085700
     41 H221       -25.9420   -46.8770   -28.8420 h4         1 V6D       0.161000
     42 H241       -22.8660   -41.3170   -32.6920 ha         1 V6D       0.175000
     43 H263       -23.8350   -43.6430   -35.5050 hc         1 V6D       0.049367
     44 H261       -24.6080   -42.2470   -36.2640 hc         1 V6D       0.049367
     45 H262       -22.9440   -42.6980   -36.6740 hc         1 V6D       0.049367
     46 H281       -22.8980   -40.4530   -37.2070 ha         1 V6D       0.174000
     47 H011       -28.8140   -45.6040   -31.0140 hc         1 V6D       0.051700
     48 H012       -28.3660   -46.9550   -29.9940 hc         1 V6D       0.051700
     49 H022       -27.5680   -46.5900   -32.9380 hc         1 V6D       0.054700
     50 H021       -28.8850   -47.6120   -32.3920 hc         1 V6D       0.054700
     51 H031       -25.9550   -48.0310   -31.5670 h1         1 V6D       0.077700
     52 H041       -26.4450   -48.3340   -34.1100 hc         1 V6D       0.075200
     53 H042       -27.4610   -49.6260   -33.7340 hc         1 V6D       0.075200
     54 H081       -23.7800   -51.9760   -34.0070 h1         1 V6D       0.066700
     55 H092       -22.2950   -51.1470   -36.0170 hc         1 V6D       0.059700
     56 H091       -23.4290   -49.8360   -36.1890 hc         1 V6D       0.059700
     57 H111       -23.2260   -47.9280   -34.7210 ha         1 V6D       0.204000
     58 H121       -20.7700   -48.0460   -32.8060 ha         1 V6D       0.171000
     59 H182       -23.7630   -42.5230   -30.7670 hc         1 V6D       0.071700
     60 H181       -25.2870   -42.0880   -31.5240 hc         1 V6D       0.071700
     61 H271       -21.9430   -39.9500   -34.3320 ha         1 V6D       0.172000
     62 H301       -22.5100   -38.7190   -38.7360 ha         1 V6D       0.180000
     63 H311       -20.8160   -36.3090   -37.9000 h1         1 V6D       0.037700
     64 H312       -22.0160   -36.4250   -39.1760 h1         1 V6D       0.037700
     65 H332       -20.5980   -35.6890   -40.9550 h1         1 V6D       0.030867
     66 H333       -19.2630   -35.3920   -39.8150 h1         1 V6D       0.030867
     67 H331       -19.0160   -36.4470   -41.2270 h1         1 V6D       0.030867
     68 H341       -19.3260   -38.9670   -38.5690 h1         1 V6D       0.030867
     69 H343       -18.2770   -38.3070   -39.8350 h1         1 V6D       0.030867
     70 H342       -18.5000   -37.4110   -38.3140 h1         1 V6D       0.030867
     71 H351       -21.2590   -37.5030   -35.0320 hc         1 V6D       0.041033
     72 H352       -20.1310   -38.8530   -35.2460 hc         1 V6D       0.041033
     73 H353       -19.9700   -37.4230   -36.2380 hc         1 V6D       0.041033
     74 H362       -21.0910   -50.3240   -32.6270 hc         1 V6D       0.046033
     75 H361       -21.3930   -51.6540   -33.7360 hc         1 V6D       0.046033
     76 H363       -20.1810   -50.4330   -34.1450 hc         1 V6D       0.046033
     77 H373       -25.4290   -53.0620   -35.5180 hc         1 V6D       0.046033
     78 H371       -24.9670   -51.9630   -36.8390 hc         1 V6D       0.046033
     79 H372       -23.7950   -53.1380   -36.2020 hc         1 V6D       0.046033
     80 H2         -27.6080   -48.9610   -30.1210 hn         1 V6D       0.390000
     81 H382       -28.3980   -49.6710   -31.3310 hn         1 V6D       0.390000
@<TRIPOS>BOND
     1     1    17 1   
     2     1    18 2   
     3     1    36 1   
     4     2    19 2   
     5     2    20 1   
     6     2    39 1   
     7     3     6 1   
     8     3    22 1   
     9     3    23 1   
    10     3    40 1   
    11     4     5 2   
    12     4     9 1   
    13     4    25 1   
    14     5    26 1   
    15     5    41 1   
    16     6    27 2   
    17     6    42 1   
    18     7    27 1   
    19     7    43 1   
    20     7    44 1   
    21     7    45 1   
    22     8    28 2   
    23     8    29 1   
    24     8    46 1   
    25     9    10 1   
    26     9    47 1   
    27     9    48 1   
    28    10    11 1   
    29    10    49 1   
    30    10    50 1   
    31    11    12 1   
    32    11    38 1   
    33    11    51 1   
    34    12    13 1   
    35    12    52 1   
    36    12    53 1   
    37    13    14 2   
    38    13    15 1   
    39    15    16 1   
    40    16    17 1   
    41    16    37 1   
    42    16    54 1   
    43    17    55 1   
    44    17    56 1   
    45    18    19 1   
    46    18    57 1   
    47    19    58 1   
    48    20    21 2   
    49    20    22 1   
    50    23    24 1   
    51    23    59 1   
    52    23    60 1   
    53    24    25 2   
    54    24    26 1   
    55    27    28 1   
    56    28    61 1   
    57    29    30 2   
    58    29    35 1   
    59    30    31 1   
    60    30    62 1   
    61    31    32 1   
    62    31    63 1   
    63    31    64 1   
    64    32    33 1   
    65    32    34 1   
    66    33    65 1   
    67    33    66 1   
    68    33    67 1   
    69    34    68 1   
    70    34    69 1   
    71    34    70 1   
    72    35    71 1   
    73    35    72 1   
    74    35    73 1   
    75    36    74 1   
    76    36    75 1   
    77    36    76 1   
    78    37    77 1   
    79    37    78 1   
    80    37    79 1   
    81    38    80 1   
    82    38    81 1   
@<TRIPOS>SUBSTRUCTURE
     1 V6D         1 TEMP              0 ****  ****    0 ROOT
