@<TRIPOS>MOLECULE
V6D
   81    82     1     0     0
SMALL
abcg2


@<TRIPOS>ATOM
      1 C10        -22.0200   -49.7050   -34.1830 c2         1 V6D      -0.063400
      2 C13        -21.9960   -46.4490   -32.3610 ce         1 V6D      -0.290200
      3 C17        -23.8890   -43.3390   -32.6460 c3         1 V6D       0.219500
      4 C21        -26.8260   -45.5580   -30.5110 cc         1 V6D       0.289300
      5 C22        -26.1050   -45.8180   -29.3880 cd         1 V6D      -0.267000
      6 C24        -23.0880   -42.2660   -33.3020 c2         1 V6D      -0.255200
      7 C26        -24.2150   -42.3250   -35.5500 c3         1 V6D      -0.064900
      8 C28        -22.4160   -40.0690   -36.1530 ce         1 V6D      -0.160000
      9 C01        -27.9970   -46.3270   -31.0310 c3         1 V6D      -0.097700
     10 C02        -27.6630   -47.0110   -32.3600 c3         1 V6D      -0.116400
     11 C03        -26.7670   -48.2480   -32.2070 c3         1 V6D       0.169500
     12 C04        -26.2030   -48.6200   -33.5690 c3         1 V6D      -0.133400
     13 C05        -25.2030   -49.7460   -33.5770 c          1 V6D       0.612100
     14 O06        -24.6920   -50.2540   -32.6140 o          1 V6D      -0.472000
     15 O07        -24.9350   -50.0920   -34.8370 os         1 V6D      -0.469100
     16 C08        -23.9280   -51.0680   -35.1390 c3         1 V6D       0.183300
     17 C09        -22.6050   -50.3440   -35.4080 c3         1 V6D      -0.072200
     18 C11        -22.2050   -48.3890   -33.9610 cf         1 V6D      -0.214000
     19 C12        -21.7380   -47.7010   -32.7830 cf         1 V6D      -0.072000
     20 C14        -22.8640   -45.4700   -33.0200 c          1 V6D       0.608300
     21 O15        -23.3930   -45.5800   -34.1030 o          1 V6D      -0.498000
     22 O16        -23.0180   -44.4030   -32.2320 os         1 V6D      -0.455100
     23 C18        -24.5600   -42.8420   -31.3640 c3         1 V6D      -0.107700
     24 C19        -25.3180   -43.9550   -30.7190 cd         1 V6D       0.436700
     25 N20        -26.3660   -44.4970   -31.2450 nc         1 V6D      -0.655000
     26 S23        -24.8030   -44.7080   -29.2570 ss         1 V6D      -0.013400
     27 C25        -23.2280   -41.7960   -34.5530 cf         1 V6D      -0.031200
     28 C27        -22.3680   -40.6880   -34.9620 cf         1 V6D      -0.190000
     29 C29        -21.5690   -38.9530   -36.5610 ce         1 V6D      -0.086200
     30 C30        -21.7760   -38.4240   -37.7790 c2         1 V6D      -0.199200
     31 C31        -21.0800   -37.2700   -38.4240 c3         1 V6D       0.198000
     32 N32        -20.6440   -37.6040   -39.7700 n3         1 V6D      -0.712600
     33 C33        -20.2250   -36.4240   -40.4940 c3         1 V6D       0.149100
     34 C34        -19.6000   -38.6050   -39.7630 c3         1 V6D       0.149100
     35 C35        -20.5280   -38.4720   -35.5940 c3         1 V6D      -0.054900
     36 C36        -21.2870   -50.6480   -33.2830 c3         1 V6D      -0.062900
     37 C37        -24.4050   -51.8320   -36.3580 c3         1 V6D      -0.096100
     38 N38        -27.4490   -49.3920   -31.6210 n8         1 V6D      -0.986200
     39 H131       -21.5570   -46.1340   -31.4230 ha         1 V6D       0.195000
     40 H171       -24.6620   -43.7340   -33.3040 h1         1 V6D       0.085700
     41 H221       -26.2650   -46.5920   -28.6540 h4         1 V6D       0.161000
     42 H241       -22.3340   -41.8090   -32.6660 ha         1 V6D       0.175000
     43 H263       -24.7170   -43.2270   -35.2130 hc         1 V6D       0.049367
     44 H261       -24.9790   -41.5780   -35.7760 hc         1 V6D       0.049367
     45 H262       -23.7180   -42.5650   -36.4910 hc         1 V6D       0.049367
     46 H281       -23.1380   -40.4000   -36.8930 ha         1 V6D       0.174000
     47 H011       -28.8340   -45.6390   -31.1800 hc         1 V6D       0.051700
     48 H012       -28.3290   -47.0570   -30.2900 hc         1 V6D       0.051700
     49 H022       -27.1880   -46.2760   -33.0160 hc         1 V6D       0.054700
     50 H021       -28.5890   -47.3150   -32.8580 hc         1 V6D       0.054700
     51 H031       -25.9300   -47.9930   -31.5480 h1         1 V6D       0.077700
     52 H041       -25.7010   -47.7490   -34.0050 hc         1 V6D       0.075200
     53 H042       -27.0160   -48.8630   -34.2620 hc         1 V6D       0.075200
     54 H081       -23.8210   -51.7590   -34.3000 h1         1 V6D       0.066700
     55 H092       -21.9040   -51.0830   -35.8090 hc         1 V6D       0.059700
     56 H091       -22.7710   -49.6020   -36.1930 hc         1 V6D       0.059700
     57 H111       -22.7600   -47.8220   -34.6970 ha         1 V6D       0.204000
     58 H121       -21.0950   -48.2710   -32.1220 ha         1 V6D       0.171000
     59 H182       -23.8200   -42.4170   -30.6830 hc         1 V6D       0.071700
     60 H181       -25.2530   -42.0410   -31.6270 hc         1 V6D       0.071700
     61 H271       -21.6550   -40.3510   -34.2160 ha         1 V6D       0.172000
     62 H301       -22.5580   -38.8650   -38.3930 ha         1 V6D       0.180000
     63 H311       -20.2500   -36.8950   -37.8050 h1         1 V6D       0.037700
     64 H312       -21.7950   -36.4430   -38.5040 h1         1 V6D       0.037700
     65 H332       -21.0380   -35.6970   -40.5340 h1         1 V6D       0.030867
     66 H333       -19.3510   -35.9240   -40.0470 h1         1 V6D       0.030867
     67 H331       -19.9650   -36.6890   -41.5190 h1         1 V6D       0.030867
     68 H341       -19.9430   -39.5100   -39.2600 h1         1 V6D       0.030867
     69 H343       -19.3360   -38.8750   -40.7860 h1         1 V6D       0.030867
     70 H342       -18.6810   -38.2690   -39.2560 h1         1 V6D       0.030867
     71 H351       -20.9880   -38.1160   -34.6690 hc         1 V6D       0.041033
     72 H352       -19.8510   -39.2830   -35.3190 hc         1 V6D       0.041033
     73 H353       -19.9270   -37.6610   -35.9960 hc         1 V6D       0.041033
     74 H362       -21.0060   -50.2280   -32.3220 hc         1 V6D       0.046033
     75 H361       -21.8880   -51.5370   -33.0890 hc         1 V6D       0.046033
     76 H363       -20.3770   -50.9940   -33.7790 hc         1 V6D       0.046033
     77 H373       -25.3730   -52.2990   -36.1740 hc         1 V6D       0.046033
     78 H371       -24.4930   -51.1830   -37.2300 hc         1 V6D       0.046033
     79 H372       -23.6950   -52.6230   -36.5970 hc         1 V6D       0.046033
     80 H2         -27.7240   -49.1830   -30.6700 hn         1 V6D       0.390000
     81 H382       -28.3130   -49.5620   -32.1240 hn         1 V6D       0.390000
@<TRIPOS>BOND
     1     1    17 1   
     2     1    18 2   
     3     1    36 1   
     4     2    19 2   
     5     2    20 1   
     6     2    39 1   
     7     3     6 1   
     8     3    22 1   
     9     3    23 1   
    10     3    40 1   
    11     4     5 2   
    12     4     9 1   
    13     4    25 1   
    14     5    26 1   
    15     5    41 1   
    16     6    27 2   
    17     6    42 1   
    18     7    27 1   
    19     7    43 1   
    20     7    44 1   
    21     7    45 1   
    22     8    28 2   
    23     8    29 1   
    24     8    46 1   
    25     9    10 1   
    26     9    47 1   
    27     9    48 1   
    28    10    11 1   
    29    10    49 1   
    30    10    50 1   
    31    11    12 1   
    32    11    38 1   
    33    11    51 1   
    34    12    13 1   
    35    12    52 1   
    36    12    53 1   
    37    13    14 2   
    38    13    15 1   
    39    15    16 1   
    40    16    17 1   
    41    16    37 1   
    42    16    54 1   
    43    17    55 1   
    44    17    56 1   
    45    18    19 1   
    46    18    57 1   
    47    19    58 1   
    48    20    21 2   
    49    20    22 1   
    50    23    24 1   
    51    23    59 1   
    52    23    60 1   
    53    24    25 2   
    54    24    26 1   
    55    27    28 1   
    56    28    61 1   
    57    29    30 2   
    58    29    35 1   
    59    30    31 1   
    60    30    62 1   
    61    31    32 1   
    62    31    63 1   
    63    31    64 1   
    64    32    33 1   
    65    32    34 1   
    66    33    65 1   
    67    33    66 1   
    68    33    67 1   
    69    34    68 1   
    70    34    69 1   
    71    34    70 1   
    72    35    71 1   
    73    35    72 1   
    74    35    73 1   
    75    36    74 1   
    76    36    75 1   
    77    36    76 1   
    78    37    77 1   
    79    37    78 1   
    80    37    79 1   
    81    38    80 1   
    82    38    81 1   
@<TRIPOS>SUBSTRUCTURE
     1 V6D         1 TEMP              0 ****  ****    0 ROOT
