@<TRIPOS>MOLECULE
V6E
   64    67     1     0     0
SMALL
bcc


@<TRIPOS>ATOM
      1 C7          24.8260    55.7530    35.4820 c          1 V6E       0.703500
      2 C9          29.2450    49.7220    37.8080 ca         1 V6E       0.530200
      3 N1          25.7120    55.7250    36.5000 n          1 V6E      -0.490800
      4 C2          26.4000    54.0630    38.2070 c3         1 V6E      -0.119400
      5 N2          30.2700    48.9080    37.9820 nb         1 V6E      -0.817000
      6 C10         30.3170    48.3100    39.1840 ca         1 V6E       0.957900
      7 C4          26.9080    56.5050    36.2490 c5         1 V6E       0.095000
      8 N3          31.3890    47.5310    39.4200 nu         1 V6E      -0.871900
      9 N5          27.4150    49.2310    40.8890 nu         1 V6E      -0.845900
     10 C6          25.4410    56.5540    34.3530 c5         1 V6E      -0.169400
     11 C16         29.4170    43.8880    40.5180 ca         1 V6E       0.026400
     12 C15         29.1490    43.6590    41.8630 ca         1 V6E       0.023400
     13 CL          28.1400    42.3510    42.3530 cl         1 V6E      -0.082400
     14 C14         29.6920    44.5020    42.8200 ca         1 V6E      -0.116000
     15 C13         30.4860    45.5670    42.4310 ca         1 V6E      -0.113000
     16 C17         30.2200    44.9510    40.1360 ca         1 V6E      -0.099000
     17 C12         30.7590    45.8030    41.0890 ca         1 V6E      -0.074300
     18 C11         31.6710    46.9410    40.7000 c3         1 V6E       0.292100
     19 N4          29.4060    48.4000    40.1410 nb         1 V6E      -0.865000
     20 C18         28.3500    49.1890    39.9380 ca         1 V6E       0.796200
     21 C19         27.3960    48.3890    42.0610 c5         1 V6E       0.233500
     22 C23         26.8710    46.9690    41.8290 c5         1 V6E      -0.096400
     23 C22         26.5170    46.4710    43.2350 c5         1 V6E      -0.077900
     24 C21         26.2450    47.7410    44.0780 c5         1 V6E      -0.077900
     25 C20         26.4520    48.9290    43.1320 c5         1 V6E      -0.096400
     26 C8          28.2500    49.9680    38.7430 ca         1 V6E      -0.537200
     27 C           27.1450    50.9180    38.5090 c          1 V6E       0.714700
     28 O           26.0840    50.8520    39.1340 o          1 V6E      -0.646100
     29 N           27.3510    51.8640    37.5730 ns         1 V6E      -0.564900
     30 C1          26.3770    52.8820    37.2440 c3         1 V6E       0.105000
     31 C3          25.4320    55.1700    37.8040 c3         1 V6E       0.108000
     32 O1          23.7160    55.2440    35.4850 o          1 V6E      -0.625500
     33 C5          26.9160    56.6510    34.7270 c5         1 V6E      -0.091400
     34 H1          29.2040    50.2040    36.8350 h4         1 V6E       0.012100
     35 H2          26.1270    53.7270    39.2090 hc         1 V6E       0.051200
     36 H3          27.4180    54.4560    38.2790 hc         1 V6E       0.051200
     37 H4          27.7970    55.9950    36.6200 h1         1 V6E       0.044700
     38 H5          32.0930    47.4950    38.7030 hn         1 V6E       0.457800
     39 H6          26.5790    49.7510    40.6510 hn         1 V6E       0.478800
     40 H7          24.9590    57.5360    34.3320 hc         1 V6E       0.077200
     41 H8          25.2550    56.0820    33.3890 hc         1 V6E       0.077200
     42 H9          29.4830    44.3290    43.8670 ha         1 V6E       0.149000
     43 H10         30.8910    46.2260    43.1900 ha         1 V6E       0.137000
     44 H11         30.4160    45.1150    39.0840 ha         1 V6E       0.155000
     45 H12         32.6970    46.5720    40.6580 h1         1 V6E       0.056200
     46 H13         31.6460    47.6980    41.4890 h1         1 V6E       0.056200
     47 H14         28.4090    48.3310    42.4680 h1         1 V6E       0.074700
     48 H15         25.9760    47.0230    41.2020 hc         1 V6E       0.053200
     49 H16         27.5930    46.3300    41.3190 hc         1 V6E       0.053200
     50 H17         25.6620    45.7960    43.2180 hc         1 V6E       0.043200
     51 H18         27.3500    45.9080    43.6580 hc         1 V6E       0.043200
     52 H19         25.2430    47.7450    44.5080 hc         1 V6E       0.043200
     53 H20         26.9420    47.7970    44.9160 hc         1 V6E       0.043200
     54 H21         26.8430    49.8140    43.6350 hc         1 V6E       0.053200
     55 H22         25.5040    49.2110    42.6640 hc         1 V6E       0.053200
     56 H23         28.2820    52.0060    37.2200 hn         1 V6E       0.308500
     57 H24         26.5980    53.2190    36.2310 h1         1 V6E       0.062700
     58 H25         25.3820    52.4350    37.2190 h1         1 V6E       0.062700
     59 H26         25.4680    55.9700    38.5490 h1         1 V6E       0.059700
     60 H27         24.4110    54.7880    37.7920 h1         1 V6E       0.059700
     61 H28         27.4710    55.8260    34.2800 hc         1 V6E       0.055700
     62 H29         26.8460    57.4740    36.7560 h1         1 V6E       0.044700
     63 H30         27.3840    57.5800    34.4070 hc         1 V6E       0.055700
     64 CL1         28.7590    42.8510    39.3080 cl         1 V6E      -0.082400
@<TRIPOS>BOND
     1     1     3 1   
     2     1    10 1   
     3     1    32 2   
     4     2     5 ar  
     5     2    26 ar  
     6     2    34 1   
     7     3     7 1   
     8     3    31 1   
     9     4    30 1   
    10     4    31 1   
    11     4    35 1   
    12     4    36 1   
    13     5     6 ar  
    14     6     8 1   
    15     6    19 ar  
    16     7    33 1   
    17     7    37 1   
    18     7    62 1   
    19     8    18 1   
    20     8    38 1   
    21     9    20 1   
    22     9    21 1   
    23     9    39 1   
    24    10    33 1   
    25    10    40 1   
    26    10    41 1   
    27    11    12 ar  
    28    11    16 ar  
    29    11    64 1   
    30    12    13 1   
    31    12    14 ar  
    32    14    15 ar  
    33    14    42 1   
    34    15    17 ar  
    35    15    43 1   
    36    16    17 ar  
    37    16    44 1   
    38    17    18 1   
    39    18    45 1   
    40    18    46 1   
    41    19    20 ar  
    42    20    26 ar  
    43    21    22 1   
    44    21    25 1   
    45    21    47 1   
    46    22    23 1   
    47    22    48 1   
    48    22    49 1   
    49    23    24 1   
    50    23    50 1   
    51    23    51 1   
    52    24    25 1   
    53    24    52 1   
    54    24    53 1   
    55    25    54 1   
    56    25    55 1   
    57    26    27 1   
    58    27    28 2   
    59    27    29 1   
    60    29    30 1   
    61    29    56 1   
    62    30    57 1   
    63    30    58 1   
    64    31    59 1   
    65    31    60 1   
    66    33    61 1   
    67    33    63 1   
@<TRIPOS>SUBSTRUCTURE
     1 V6E         1 TEMP              0 ****  ****    0 ROOT
