@<TRIPOS>MOLECULE
V6E
   64    67     1     0     0
SMALL
No Charge or Current Charge


@<TRIPOS>ATOM
      1 C7          24.5470    55.1570    35.8820 c          1 V6E       0.561000
      2 C9          29.7170    50.1350    38.3750 ca         1 V6E       0.201900
      3 N1          25.6210    55.6740    36.6130 n          1 V6E      -0.423800
      4 C2          26.8410    54.3040    38.3570 c3         1 V6E      -0.119400
      5 N2          30.7360    49.2640    38.4830 nb         1 V6E      -0.291000
      6 C10         30.7990    48.5620    39.6190 ca         1 V6E       0.431900
      7 C4          26.6570    56.3300    35.7880 c5         1 V6E       0.095000
      8 N3          31.8190    47.6280    39.6860 nu         1 V6E      -0.927100
      9 N5          28.0160    49.5070    41.5770 nu         1 V6E      -0.901100
     10 C6          24.7620    55.6890    34.4690 c5         1 V6E      -0.169400
     11 C16         29.0160    44.4880    40.7380 ca         1 V6E       0.118000
     12 C15         28.7620    44.3230    42.1150 ca         1 V6E       0.115000
     13 Cl          27.3970    43.3610    42.6830 cl         1 V6E      -0.174000
     14 C14         29.6080    44.9280    43.0580 ca         1 V6E      -0.098000
     15 C13         30.7060    45.6960    42.6320 ca         1 V6E      -0.095000
     16 C17         30.1200    45.2480    40.3150 ca         1 V6E      -0.081000
     17 C12         30.9710    45.8640    41.2580 ca         1 V6E      -0.074300
     18 C11         32.1560    46.7280    40.8100 c3         1 V6E       0.292100
     19 N4          29.9560    48.6380    40.6520 nb         1 V6E      -0.339000
     20 C18         28.9240    49.4830    40.5300 ca         1 V6E       0.467900
     21 C19         27.5510    48.1490    41.9700 c5         1 V6E       0.233500
     22 C23         26.6230    47.6520    40.8270 c5         1 V6E      -0.096400
     23 C22         25.6540    46.6760    41.5670 c5         1 V6E      -0.077900
     24 C21         25.8160    47.0120    43.0870 c5         1 V6E      -0.077900
     25 C20         26.5110    48.3980    43.0820 c5         1 V6E      -0.096400
     26 C8          28.7500    50.2860    39.3900 ca         1 V6E      -0.406600
     27 C           27.6070    51.2460    39.2400 c          1 V6E       0.647700
     28 O           26.7700    51.4180    40.1150 o          1 V6E      -0.646100
     29 N           27.5460    51.9320    38.0510 ns         1 V6E      -0.497900
     30 C1          26.5330    52.9360    37.7160 c3         1 V6E       0.105000
     31 C3          25.7770    55.3800    38.0530 c3         1 V6E       0.108000
     32 O1          23.7800    54.2900    36.2750 o          1 V6E      -0.550000
     33 C5          26.3070    55.7840    34.3700 c5         1 V6E      -0.091400
     34 H1          29.6840    50.7020    37.4470 h4         1 V6E       0.012100
     35 H2          26.9120    54.1860    39.4440 hc         1 V6E       0.051200
     36 H3          27.8220    54.6530    38.0130 hc         1 V6E       0.051200
     37 H4          27.6770    56.0610    36.0940 h1         1 V6E       0.044700
     38 H5          32.4380    47.6130    38.8750 hn         1 V6E       0.513000
     39 H6          27.3030    50.2200    41.3870 hn         1 V6E       0.534000
     40 H7          24.3550    56.7060    34.4260 hc         1 V6E       0.077200
     41 H8          24.2750    55.0600    33.7170 hc         1 V6E       0.077200
     42 H9          29.4120    44.8030    44.1200 ha         1 V6E       0.131000
     43 H10         31.3490    46.1660    43.3740 ha         1 V6E       0.119000
     44 H11         30.3060    45.3710    39.2510 ha         1 V6E       0.137000
     45 H12         32.9850    46.0670    40.5240 h1         1 V6E       0.056200
     46 H13         32.5020    47.3290    41.6630 h1         1 V6E       0.056200
     47 H14         28.3320    47.4310    42.2650 h1         1 V6E       0.074700
     48 H15         26.0550    48.4680    40.3640 hc         1 V6E       0.053200
     49 H16         27.1820    47.1540    40.0260 hc         1 V6E       0.053200
     50 H17         24.6210    46.8230    41.2300 hc         1 V6E       0.043200
     51 H18         25.9030    45.6280    41.3660 hc         1 V6E       0.043200
     52 H19         24.8550    47.0310    43.6130 hc         1 V6E       0.043200
     53 H20         26.4410    46.2630    43.5880 hc         1 V6E       0.043200
     54 H21         26.9740    48.6390    44.0460 hc         1 V6E       0.053200
     55 H22         25.8020    49.2000    42.8390 hc         1 V6E       0.053200
     56 H23         28.2690    51.7340    37.3730 hn         1 V6E       0.308500
     57 H24         26.4970    53.0400    36.6230 h1         1 V6E       0.062700
     58 H25         25.5490    52.5820    38.0520 h1         1 V6E       0.062700
     59 H26         26.0620    56.3100    38.5630 h1         1 V6E       0.059700
     60 H27         24.8130    55.0660    38.4750 h1         1 V6E       0.059700
     61 H28         26.7530    54.7950    34.2090 hc         1 V6E       0.055700
     62 H29         26.5530    57.4220    35.8380 h1         1 V6E       0.044700
     63 H30         26.6520    56.4410    33.5630 hc         1 V6E       0.055700
     64 Cl1         27.9640    43.7590    39.5250 cl         1 V6E      -0.174000
@<TRIPOS>BOND
     1     1     3 1   
     2     1    10 1   
     3     1    32 2   
     4     2     5 ar  
     5     2    26 ar  
     6     2    34 1   
     7     3     7 1   
     8     3    31 1   
     9     4    30 1   
    10     4    31 1   
    11     4    35 1   
    12     4    36 1   
    13     5     6 ar  
    14     6     8 1   
    15     6    19 ar  
    16     7    33 1   
    17     7    37 1   
    18     7    62 1   
    19     8    18 1   
    20     8    38 1   
    21     9    20 1   
    22     9    21 1   
    23     9    39 1   
    24    10    33 1   
    25    10    40 1   
    26    10    41 1   
    27    11    12 ar  
    28    11    16 ar  
    29    11    64 1   
    30    12    13 1   
    31    12    14 ar  
    32    14    15 ar  
    33    14    42 1   
    34    15    17 ar  
    35    15    43 1   
    36    16    17 ar  
    37    16    44 1   
    38    17    18 1   
    39    18    45 1   
    40    18    46 1   
    41    19    20 ar  
    42    20    26 ar  
    43    21    22 1   
    44    21    25 1   
    45    21    47 1   
    46    22    23 1   
    47    22    48 1   
    48    22    49 1   
    49    23    24 1   
    50    23    50 1   
    51    23    51 1   
    52    24    25 1   
    53    24    52 1   
    54    24    53 1   
    55    25    54 1   
    56    25    55 1   
    57    26    27 1   
    58    27    28 2   
    59    27    29 1   
    60    29    30 1   
    61    29    56 1   
    62    30    57 1   
    63    30    58 1   
    64    31    59 1   
    65    31    60 1   
    66    33    61 1   
    67    33    63 1   
@<TRIPOS>SUBSTRUCTURE
     1 V6E         1 TEMP              0 ****  ****    0 ROOT
