@<TRIPOS>MOLECULE
V6F
   27    27     1     0     0
SMALL
bcc


@<TRIPOS>ATOM
      1 O01          2.3460    -1.9070    -0.9180 oh         1 V6F      -0.589800
      2 C02          1.8190    -1.6990     0.3720 c5         1 V6F       0.130100
      3 C03          0.3140    -1.8960     0.2960 c5         1 V6F      -0.082400
      4 C04         -0.2020    -0.5750    -0.2940 c5         1 V6F       0.037700
      5 C05         -1.5660    -0.2210     0.2850 c          1 V6F       0.666100
      6 N06         -2.6020    -0.4810    -0.5170 ns         1 V6F      -0.563900
      7 C07         -3.9710    -0.2750    -0.1100 c3         1 V6F       0.096300
      8 O08         -1.6890     0.1970     1.4270 o          1 V6F      -0.600100
      9 N09          0.8090     0.3830     0.1100 n          1 V6F      -0.466800
     10 C10          0.6720     1.6870    -0.1850 c          1 V6F       0.682100
     11 C11          1.7730     2.6020     0.2860 c3         1 V6F      -0.172100
     12 O12         -0.3010     2.0940    -0.8090 o          1 V6F      -0.605100
     13 C13          1.9230    -0.2410     0.8050 c5         1 V6F       0.073000
     14 H01          3.2920    -1.7320    -0.8960 ho         1 V6F       0.405000
     15 H02          2.2840    -2.3610     1.1110 h1         1 V6F       0.051700
     16 H031         0.0260    -2.7600    -0.3010 hc         1 V6F       0.071700
     17 H032        -0.0740    -2.0410     1.3060 hc         1 V6F       0.071700
     18 H131         1.8150    -0.1560     1.8910 h1         1 V6F       0.053200
     19 H132         2.8800     0.2050     0.5280 h1         1 V6F       0.053200
     20 H04         -0.2560    -0.6330    -1.3860 h1         1 V6F       0.073700
     21 H06         -2.4250    -0.7680    -1.4650 hn         1 V6F       0.316500
     22 H071        -4.2210    -0.8700     0.7680 h1         1 V6F       0.039700
     23 H072        -4.1720     0.7730     0.1180 h1         1 V6F       0.039700
     24 H073        -4.6220    -0.5790    -0.9250 h1         1 V6F       0.039700
     25 H111         1.9430     2.5060     1.3590 hc         1 V6F       0.060033
     26 H112         2.7150     2.3660    -0.2130 hc         1 V6F       0.060033
     27 H113         1.5140     3.6340     0.0630 hc         1 V6F       0.060033
@<TRIPOS>BOND
     1     1     2 1   
     2     1    14 1   
     3     2     3 1   
     4     2    13 1   
     5     2    15 1   
     6     3     4 1   
     7     3    16 1   
     8     3    17 1   
     9     4     5 1   
    10     4     9 1   
    11     4    20 1   
    12     5     6 1   
    13     5     8 2   
    14     6     7 1   
    15     6    21 1   
    16     7    22 1   
    17     7    23 1   
    18     7    24 1   
    19     9    10 1   
    20     9    13 1   
    21    10    11 1   
    22    10    12 2   
    23    11    25 1   
    24    11    26 1   
    25    11    27 1   
    26    13    18 1   
    27    13    19 1   
@<TRIPOS>SUBSTRUCTURE
     1 V6F         1 TEMP              0 ****  ****    0 ROOT
