@<TRIPOS>MOLECULE
V6F
   27    27     1     0     0
SMALL
No Charge or Current Charge


@<TRIPOS>ATOM
      1 O01          2.1350    -2.0150    -1.0900 oh         1 V6F      -0.652000
      2 C02          1.7430    -1.7160     0.2550 c5         1 V6F       0.153300
      3 C03          0.2040    -1.7650     0.4150 c5         1 V6F      -0.082400
      4 C04         -0.2590    -0.4280    -0.2430 c5         1 V6F       0.037700
      5 C05         -1.6750    -0.0720     0.3180 c          1 V6F       0.599100
      6 N06         -2.6420    -0.6660    -0.4670 ns         1 V6F      -0.496900
      7 C07         -4.0810    -0.5440    -0.2280 c3         1 V6F       0.096300
      8 O08         -1.9410     0.6170     1.2960 o          1 V6F      -0.600100
      9 N09          0.8450     0.4860     0.1660 n          1 V6F      -0.399800
     10 C10          0.8160     1.8750    -0.0780 c          1 V6F       0.615100
     11 C11          1.9540     2.7350     0.4750 c3         1 V6F      -0.172100
     12 O12         -0.1080     2.3880    -0.6970 o          1 V6F      -0.605100
     13 C13          2.0460    -0.2380     0.6500 c5         1 V6F       0.073000
     14 H01          3.1170    -1.9880    -1.1170 ho         1 V6F       0.444000
     15 H02          2.2340    -2.4160     0.9460 h1         1 V6F       0.051700
     16 H031        -0.2440    -2.6460    -0.0580 hc         1 V6F       0.071700
     17 H032        -0.0650    -1.8000     1.4780 hc         1 V6F       0.071700
     18 H131         2.1430    -0.1320     1.7390 h1         1 V6F       0.053200
     19 H132         2.9720     0.1240     0.1850 h1         1 V6F       0.053200
     20 H04         -0.3040    -0.5060    -1.3370 h1         1 V6F       0.073700
     21 H06         -2.3260    -1.2200    -1.2550 hn         1 V6F       0.316500
     22 H071        -4.3270    -0.9460     0.7630 h1         1 V6F       0.039700
     23 H072        -4.3750     0.5130    -0.2770 h1         1 V6F       0.039700
     24 H073        -4.6290    -1.1080    -0.9940 h1         1 V6F       0.039700
     25 H111         2.1320     2.4740     1.5240 hc         1 V6F       0.060033
     26 H112         2.8900     2.4400    -0.0100 hc         1 V6F       0.060033
     27 H113         1.7700     3.8070     0.3450 hc         1 V6F       0.060033
@<TRIPOS>BOND
     1     1     2 1   
     2     1    14 1   
     3     2     3 1   
     4     2    13 1   
     5     2    15 1   
     6     3     4 1   
     7     3    16 1   
     8     3    17 1   
     9     4     5 1   
    10     4     9 1   
    11     4    20 1   
    12     5     6 1   
    13     5     8 2   
    14     6     7 1   
    15     6    21 1   
    16     7    22 1   
    17     7    23 1   
    18     7    24 1   
    19     9    10 1   
    20     9    13 1   
    21    10    11 1   
    22    10    12 2   
    23    11    25 1   
    24    11    26 1   
    25    11    27 1   
    26    13    18 1   
    27    13    19 1   
@<TRIPOS>SUBSTRUCTURE
     1 V6F         1 TEMP              0 ****  ****    0 ROOT
