@<TRIPOS>MOLECULE
V6G
  113   123     1     0     0
SMALL
No Charge or Current Charge


@<TRIPOS>ATOM
      1 C01        155.0750   140.5760   119.0120 ca         1 V6G      -0.098800
      2 C02        155.2250   140.4750   120.3990 ca         1 V6G      -0.051000
      3 C03        154.1630   139.8390   118.3160 ca         1 V6G      -0.043200
      4 C04        154.4040   139.5590   121.0970 ca         1 V6G      -0.098300
      5 C05        153.4720   138.7710   120.3720 ca         1 V6G      -0.086000
      6 C06        153.3440   138.9080   118.9730 ca         1 V6G      -0.134000
      7 C07        155.6940   141.4700   118.0900 cc         1 V6G      -0.201200
      8 C08        155.0490   141.3220   116.8580 cd         1 V6G      -0.106300
      9 C09        153.0420   140.0430   116.0210 cx         1 V6G      -0.049300
     10 C10        153.2200   139.4740   114.6220 cx         1 V6G      -0.068400
     11 C11        152.4800   138.6740   115.6560 cx         1 V6G      -0.084700
     12 C12        152.0800   141.1640   116.1850 cc         1 V6G       0.413900
     13 C13        150.4920   142.3140   117.2170 c          1 V6G       0.653100
     14 C14        150.9860   138.4020   115.4990 c3         1 V6G      -0.076100
     15 C15        155.3070   142.1760   115.6420 c          1 V6G       0.633300
     16 C16        155.9680   144.4140   114.6840 c6         1 V6G       0.093000
     17 C17        154.7060   145.1770   114.2030 c6         1 V6G      -0.121700
     18 C18        153.8480   145.6710   115.3440 cc         1 V6G       0.261300
     19 C19        154.0700   145.2000   116.6570 cc         1 V6G      -0.215300
     20 C20        155.2260   144.3160   117.0370 c6         1 V6G       0.210000
     21 C21        156.3570   145.1690   117.6690 c3         1 V6G      -0.102100
     22 C22        153.0920   145.7290   117.4490 cd         1 V6G       0.013600
     23 C23        151.2240   147.1690   117.0050 ca         1 V6G      -0.010200
     24 C24        150.1570   146.4110   117.5270 ca         1 V6G      -0.068500
     25 C25        151.1230   148.5720   116.9580 ca         1 V6G      -0.068500
     26 C26        149.9750   149.2230   117.4510 ca         1 V6G      -0.105800
     27 C27        148.9250   148.4530   117.9930 ca         1 V6G       0.171000
     28 C28        149.0080   147.0460   118.0330 ca         1 V6G      -0.105800
     29 C29        152.4570   146.3940   119.8050 c          1 V6G       0.581000
     30 C30        152.2280   144.2190   120.4840 cc         1 V6G      -0.150400
     31 C31        152.7320   144.1920   119.2060 cd         1 V6G      -0.143400
     32 C32        147.8770   146.2170   118.6300 c3         1 V6G      -0.040800
     33 C33        149.8800   150.7430   117.4100 c3         1 V6G      -0.040800
     34 C34        151.6080   145.9660   122.1720 ca         1 V6G      -0.041400
     35 C35        150.6940   147.0440   122.3590 ca         1 V6G       0.275000
     36 C36        151.9450   145.1580   123.2970 ca         1 V6G      -0.044000
     37 C37        151.4730   145.4710   124.5920 ca         1 V6G      -0.140000
     38 C38        150.6300   146.5800   124.7230 ca         1 V6G      -0.011200
     39 C39        150.2530   147.3220   123.6550 ca         1 V6G      -0.278900
     40 C40        149.3400   148.3140   124.1620 cc         1 V6G       0.381800
     41 C42        155.8940   139.1600   123.1570 c6         1 V6G      -0.110400
     42 C43        155.9140   139.1400   124.7040 c6         1 V6G       0.161600
     43 C44        154.0350   140.7160   124.8480 c6         1 V6G       0.185000
     44 C45        153.9140   140.7510   123.2950 c6         1 V6G      -0.095400
     45 C46        154.4640   139.4570   122.6280 c6         1 V6G      -0.010400
     46 C47        153.7560   142.1210   125.4480 c3         1 V6G      -0.099100
     47 C48        153.0540   139.7060   125.5250 c3         1 V6G      -0.099100
     48 F01        147.8230   149.0720   118.4800 f          1 V6G      -0.180000
     49 F02        150.1920   147.7530   121.3240 f          1 V6G      -0.152000
     50 N01        154.1530   140.2170   116.9780 na         1 V6G      -0.064700
     51 N02        151.9650   142.2210   115.4600 n2         1 V6G      -0.309700
     52 N03        151.2380   141.1930   117.2310 ns         1 V6G      -0.551900
     53 N04        155.6640   143.5370   115.8480 n          1 V6G      -0.399800
     54 N05        152.8170   146.4870   115.2340 nd         1 V6G      -0.474800
     55 N06        152.3850   146.5410   116.5480 na         1 V6G       0.243000
     56 N07        152.8920   145.5110   118.8140 n          1 V6G      -0.208200
     57 N08        152.0230   145.5530   120.8520 n          1 V6G      -0.211200
     58 N09        149.9800   147.1150   125.8140 na         1 V6G       0.082600
     59 N10        149.1650   148.1980   125.4890 nd         1 V6G      -0.513100
     60 O01        150.9270   143.0000   116.0950 os         1 V6G      -0.216100
     61 O02        149.6360   142.6430   118.0170 o          1 V6G      -0.514000
     62 O03        155.1850   141.7400   114.5040 o          1 V6G      -0.586100
     63 O05        155.3960   140.3890   125.2230 os         1 V6G      -0.456000
     64 H1         155.9300   141.1170   120.9220 ha         1 V6G       0.121000
     65 H2         152.8290   138.0680   120.8960 ha         1 V6G       0.112000
     66 H3         152.6110   138.3170   118.4320 ha         1 V6G       0.119000
     67 H4         156.4910   142.1750   118.3140 ha         1 V6G       0.215000
     68 H5         154.2120   139.1300   114.3370 hc         1 V6G       0.108700
     69 H6         152.6510   139.9210   113.8100 hc         1 V6G       0.108700
     70 H7         153.0080   137.8120   116.0590 hc         1 V6G       0.097700
     71 H8         150.5160   138.2340   116.4750 hc         1 V6G       0.050367
     72 H9         150.4650   139.2330   115.0090 hc         1 V6G       0.050367
     73 H10        150.8210   137.5050   114.8910 hc         1 V6G       0.050367
     74 H11        156.3880   143.8280   113.8540 h1         1 V6G       0.067700
     75 H12        156.7440   145.1390   114.9660 h1         1 V6G       0.067700
     76 H13        155.0040   146.0070   113.5510 hc         1 V6G       0.074200
     77 H14        154.1070   144.5000   113.5790 hc         1 V6G       0.074200
     78 H15        154.8770   143.6550   117.8270 h1         1 V6G       0.062700
     79 H16        156.0210   145.6170   118.6110 hc         1 V6G       0.047700
     80 H17        157.2380   144.5550   117.8890 hc         1 V6G       0.047700
     81 H18        156.6710   145.9890   117.0130 hc         1 V6G       0.047700
     82 H19        150.2330   145.3270   117.5590 ha         1 V6G       0.144500
     83 H20        151.9470   149.1540   116.5510 ha         1 V6G       0.144500
     84 H21        151.9290   143.4260   121.1630 h4         1 V6G       0.233000
     85 H22        152.9390   143.3640   118.5350 h4         1 V6G       0.242000
     86 H23        147.7250   146.4670   119.6870 hc         1 V6G       0.049700
     87 H24        146.9330   146.4020   118.1020 hc         1 V6G       0.049700
     88 H25        148.0820   145.1420   118.5710 hc         1 V6G       0.049700
     89 H26        149.7920   151.1580   118.4210 hc         1 V6G       0.049700
     90 H27        150.7620   151.1960   116.9420 hc         1 V6G       0.049700
     91 H28        149.0010   151.0660   116.8380 hc         1 V6G       0.049700
     92 H29        152.6030   144.3010   123.1770 ha         1 V6G       0.127000
     93 H30        151.7490   144.8640   125.4500 ha         1 V6G       0.129000
     94 H31        148.7990   149.1010   123.6530 h4         1 V6G       0.061800
     95 H32        149.5290   147.2160   127.8770 h1         1 V6G       0.057700
     96 H33        149.7560   145.5660   127.2250 h1         1 V6G       0.057700
     97 H34        151.1720   146.6290   127.4830 h1         1 V6G       0.057700
     98 H35        156.2460   138.1950   122.7690 hc         1 V6G       0.053200
     99 H36        156.6050   139.9180   122.8040 hc         1 V6G       0.053200
    100 H37        155.3270   138.2950   125.0890 h1         1 V6G       0.042700
    101 H38        156.9470   139.0140   125.0580 h1         1 V6G       0.042700
    102 H39        154.4650   141.6200   122.9100 hc         1 V6G       0.050200
    103 H40        152.8660   140.9020   123.0040 hc         1 V6G       0.050200
    104 H41        153.8240   138.6190   122.9330 hc         1 V6G       0.050700
    105 H42        153.8660   142.1200   126.5390 hc         1 V6G       0.041533
    106 H43        154.4480   142.8710   125.0460 hc         1 V6G       0.041533
    107 H44        152.7370   142.4550   125.2180 hc         1 V6G       0.041533
    108 H45        153.2340   139.6440   126.6050 hc         1 V6G       0.041533
    109 H46        152.0130   140.0180   125.3830 hc         1 V6G       0.041533
    110 H47        153.1370   138.6930   125.1190 hc         1 V6G       0.041533
    111 H48        151.1640   140.5000   117.9600 hn         1 V6G       0.486000
    112 O04        152.5070   147.6170   119.7810 o          1 V6G      -0.551000
    113 C41        150.1170   146.6000   127.1850 c3         1 V6G       0.078900
@<TRIPOS>BOND
     1     1     2 ar  
     2     1     3 ar  
     3     1     7 1   
     4     2     4 ar  
     5     2    64 1   
     6     3     6 ar  
     7     3    50 1   
     8     4     5 ar  
     9     4    45 1   
    10     5     6 ar  
    11     5    65 1   
    12     6    66 1   
    13     7     8 2   
    14     7    67 1   
    15     8    15 1   
    16     8    50 1   
    17     9    10 1   
    18     9    11 1   
    19     9    12 1   
    20     9    50 1   
    21    10    11 1   
    22    10    68 1   
    23    10    69 1   
    24    11    14 1   
    25    11    70 1   
    26    12    51 2   
    27    12    52 1   
    28    13    52 1   
    29    13    60 1   
    30    13    61 2   
    31    14    71 1   
    32    14    72 1   
    33    14    73 1   
    34    15    53 1   
    35    15    62 2   
    36    16    17 1   
    37    16    53 1   
    38    16    74 1   
    39    16    75 1   
    40    17    18 1   
    41    17    76 1   
    42    17    77 1   
    43    18    19 1   
    44    18    54 2   
    45    19    20 1   
    46    19    22 2   
    47    20    21 1   
    48    20    53 1   
    49    20    78 1   
    50    21    79 1   
    51    21    80 1   
    52    21    81 1   
    53    22    55 1   
    54    22    56 1   
    55    23    24 ar  
    56    23    25 ar  
    57    23    55 1   
    58    24    28 ar  
    59    24    82 1   
    60    25    26 ar  
    61    25    83 1   
    62    26    27 ar  
    63    26    33 1   
    64    27    28 ar  
    65    27    48 1   
    66    28    32 1   
    67    29    56 1   
    68    29    57 1   
    69    29   112 2   
    70    30    31 2   
    71    30    57 1   
    72    30    84 1   
    73    31    56 1   
    74    31    85 1   
    75    32    86 1   
    76    32    87 1   
    77    32    88 1   
    78    33    89 1   
    79    33    90 1   
    80    33    91 1   
    81    34    35 ar  
    82    34    36 ar  
    83    34    57 1   
    84    35    39 ar  
    85    35    49 1   
    86    36    37 ar  
    87    36    92 1   
    88    37    38 ar  
    89    37    93 1   
    90    38    39 ar  
    91    38    58 1   
    92    39    40 1   
    93    40    59 2   
    94    40    94 1   
    95    41    42 1   
    96    41    45 1   
    97    41    98 1   
    98    41    99 1   
    99    42    63 1   
   100    42   100 1   
   101    42   101 1   
   102    43    44 1   
   103    43    46 1   
   104    43    47 1   
   105    43    63 1   
   106    44    45 1   
   107    44   102 1   
   108    44   103 1   
   109    45   104 1   
   110    46   105 1   
   111    46   106 1   
   112    46   107 1   
   113    47   108 1   
   114    47   109 1   
   115    47   110 1   
   116    51    60 1   
   117    52   111 1   
   118    54    55 1   
   119    58    59 1   
   120    58   113 1   
   121    95   113 1   
   122    96   113 1   
   123    97   113 1   
@<TRIPOS>SUBSTRUCTURE
     1 V6G         1 TEMP              0 ****  ****    0 ROOT
