@<TRIPOS>MOLECULE
V6G
  113   123     1     0     0
SMALL
abcg2


@<TRIPOS>ATOM
      1 C01        155.1570   140.6560   119.7510 ca         1 V6G      -0.098800
      2 C02        155.2180   140.1250   121.0440 ca         1 V6G      -0.051000
      3 C03        154.2760   140.1010   118.8060 ca         1 V6G      -0.043200
      4 C04        154.3990   139.0650   121.3900 ca         1 V6G      -0.098300
      5 C05        153.5040   138.5550   120.4280 ca         1 V6G      -0.086000
      6 C06        153.4220   139.0520   119.1440 ca         1 V6G      -0.134000
      7 C07        155.8310   141.7390   119.1070 cc         1 V6G      -0.201200
      8 C08        155.3610   141.7980   117.8330 cd         1 V6G      -0.106300
      9 C09        153.7760   140.5220   116.3900 cx         1 V6G      -0.049300
     10 C10        154.5760   140.0150   115.2170 cx         1 V6G      -0.068400
     11 C11        153.6830   139.0740   115.9320 cx         1 V6G      -0.084700
     12 C12        152.6380   141.4150   116.1080 cc         1 V6G       0.413900
     13 C13        150.7880   142.5700   116.4130 c          1 V6G       0.653100
     14 C14        152.4240   138.5220   115.3220 c3         1 V6G      -0.076100
     15 C15        155.7560   142.7160   116.7190 c          1 V6G       0.633300
     16 C16        155.4320   144.8430   115.5920 c6         1 V6G       0.093000
     17 C17        154.1590   145.0460   114.7740 c6         1 V6G      -0.121700
     18 C18        153.0730   145.4120   115.7250 cc         1 V6G       0.261300
     19 C19        153.1560   145.1490   117.1010 cc         1 V6G      -0.215300
     20 C20        154.2940   144.4330   117.7600 c6         1 V6G       0.210000
     21 C21        155.0670   145.3070   118.7430 c3         1 V6G      -0.102100
     22 C22        152.0090   145.6990   117.6180 cd         1 V6G       0.013600
     23 C23        150.0360   146.8260   116.5900 ca         1 V6G      -0.010200
     24 C24        149.0370   146.2820   115.7970 ca         1 V6G      -0.068500
     25 C25        149.7920   147.9420   117.3760 ca         1 V6G      -0.068500
     26 C26        148.5270   148.5190   117.4010 ca         1 V6G      -0.105800
     27 C27        147.5550   147.9450   116.5980 ca         1 V6G       0.171000
     28 C28        147.7670   146.8430   115.7820 ca         1 V6G      -0.105800
     29 C29        151.8710   146.7940   119.7850 c          1 V6G       0.581000
     30 C30        150.6730   145.2010   120.8680 cc         1 V6G      -0.150400
     31 C31        150.8170   144.7830   119.6060 cd         1 V6G      -0.143400
     32 C32        146.6650   146.2780   114.9380 c3         1 V6G      -0.040800
     33 C33        148.2270   149.7230   118.2430 c3         1 V6G      -0.040800
     34 C34        151.4320   147.2080   122.1510 ca         1 V6G      -0.041400
     35 C35        150.6400   148.3180   122.3190 ca         1 V6G       0.275000
     36 C36        152.3760   146.8620   123.1400 ca         1 V6G      -0.044000
     37 C37        152.5350   147.5990   124.2870 ca         1 V6G      -0.140000
     38 C38        151.7170   148.7280   124.4310 ca         1 V6G      -0.011200
     39 C39        150.7730   149.1030   123.4600 ca         1 V6G      -0.278900
     40 C40        150.1730   150.2770   123.9770 cc         1 V6G       0.381800
     41 C42        155.3900   137.1690   122.6880 c6         1 V6G      -0.110400
     42 C43        155.4300   136.4860   124.0430 c6         1 V6G       0.161600
     43 C44        154.9920   138.5290   125.2230 c6         1 V6G       0.185000
     44 C45        154.9050   139.2830   123.8880 c6         1 V6G      -0.095400
     45 C46        154.4600   138.3850   122.7370 c6         1 V6G      -0.010400
     46 C47        155.7060   139.3920   126.2530 c3         1 V6G      -0.099100
     47 C48        153.6040   138.1630   125.7520 c3         1 V6G      -0.099100
     48 F01        146.3260   148.4910   116.6060 f          1 V6G      -0.180000
     49 F02        149.7460   148.6530   121.3910 f          1 V6G      -0.152000
     50 N01        154.4330   140.7950   117.6250 na         1 V6G      -0.064700
     51 N02        152.3550   141.8980   114.9510 n2         1 V6G      -0.309700
     52 N03        151.7260   141.8030   117.0380 ns         1 V6G      -0.551900
     53 N04        155.1710   143.9300   116.6990 n          1 V6G      -0.399800
     54 N05        151.9620   146.0540   115.4200 nd         1 V6G      -0.474800
     55 N06        151.3200   146.2290   116.5740 na         1 V6G       0.243000
     56 N07        151.5480   145.7610   118.9280 n          1 V6G      -0.208200
     57 N08        151.3120   146.4320   120.9810 n          1 V6G      -0.211200
     58 N09        151.6180   149.6490   125.4170 na         1 V6G       0.082600
     59 N10        150.7000   150.5790   125.1360 nd         1 V6G      -0.513100
     60 O01        151.1840   142.6190   115.1260 os         1 V6G      -0.216100
     61 O02        149.8030   143.1070   116.8410 o          1 V6G      -0.514000
     62 O03        156.5640   142.3370   115.8860 o          1 V6G      -0.586100
     63 O05        155.8080   137.3690   125.0740 os         1 V6G      -0.456000
     64 H1         155.9100   140.5550   121.7570 ha         1 V6G       0.121000
     65 H2         152.8470   137.7400   120.7110 ha         1 V6G       0.112000
     66 H3         152.7050   138.6420   118.4450 ha         1 V6G       0.119000
     67 H4         156.5670   142.3980   119.5420 ha         1 V6G       0.215000
     68 H5         155.6420   139.9290   115.3710 hc         1 V6G       0.108700
     69 H6         154.2880   140.3680   114.2350 hc         1 V6G       0.108700
     70 H7         154.1880   138.3870   116.6020 hc         1 V6G       0.097700
     71 H8         151.6850   138.2900   116.0910 hc         1 V6G       0.050367
     72 H9         151.9700   139.2080   114.6080 hc         1 V6G       0.050367
     73 H10        152.6530   137.6000   114.7890 hc         1 V6G       0.050367
     74 H11        156.2320   144.4390   114.9800 h1         1 V6G       0.067700
     75 H12        155.7760   145.8000   115.9910 h1         1 V6G       0.067700
     76 H13        154.3140   145.8300   114.0310 hc         1 V6G       0.074200
     77 H14        153.9140   144.1280   114.2350 hc         1 V6G       0.074200
     78 H15        153.9000   143.5760   118.3090 h1         1 V6G       0.062700
     79 H16        154.4200   145.6380   119.5530 hc         1 V6G       0.047700
     80 H17        155.8870   144.7410   119.1840 hc         1 V6G       0.047700
     81 H18        155.4770   146.1920   118.2560 hc         1 V6G       0.047700
     82 H19        149.2430   145.4100   115.1900 ha         1 V6G       0.144500
     83 H20        150.5890   148.3910   117.9540 ha         1 V6G       0.144500
     84 H21        150.1660   144.7460   121.7010 h4         1 V6G       0.233000
     85 H22        150.4550   143.8980   119.1140 h4         1 V6G       0.242000
     86 H23        145.8280   145.9340   115.5470 hc         1 V6G       0.049700
     87 H24        146.2740   147.0180   114.2390 hc         1 V6G       0.049700
     88 H25        147.0250   145.4310   114.3590 hc         1 V6G       0.049700
     89 H26        147.4400   149.5190   118.9690 hc         1 V6G       0.049700
     90 H27        149.1130   150.0370   118.7910 hc         1 V6G       0.049700
     91 H28        147.8960   150.5650   117.6350 hc         1 V6G       0.049700
     92 H29        152.9890   145.9850   122.9730 ha         1 V6G       0.127000
     93 H30        153.2650   147.3180   125.0330 ha         1 V6G       0.129000
     94 H31        149.3930   150.8860   123.5470 h4         1 V6G       0.061800
     95 H32        151.8710   150.2770   127.3700 h1         1 V6G       0.057700
     96 H33        152.6930   148.7680   126.9620 h1         1 V6G       0.057700
     97 H34        153.3530   150.3130   126.3950 h1         1 V6G       0.057700
     98 H35        155.0560   136.4540   121.9330 hc         1 V6G       0.053200
     99 H36        156.3950   137.4960   122.4020 hc         1 V6G       0.053200
    100 H37        154.4540   136.0250   124.2470 h1         1 V6G       0.042700
    101 H38        156.1660   135.6790   124.0440 h1         1 V6G       0.042700
    102 H39        155.8970   139.6930   123.6700 hc         1 V6G       0.050200
    103 H40        154.2290   140.1350   123.9950 hc         1 V6G       0.050200
    104 H41        153.4500   138.0190   122.9550 hc         1 V6G       0.050700
    105 H42        155.7850   138.8760   127.2120 hc         1 V6G       0.041533
    106 H43        156.7120   139.6530   125.9190 hc         1 V6G       0.041533
    107 H44        155.1570   140.3200   126.4190 hc         1 V6G       0.041533
    108 H45        153.6850   137.6170   126.6940 hc         1 V6G       0.041533
    109 H46        153.0270   139.0690   125.9430 hc         1 V6G       0.041533
    110 H47        153.0230   137.5510   125.0620 hc         1 V6G       0.041533
    111 H48        151.7100   141.5660   118.0200 hn         1 V6G       0.486000
    112 O04        152.5140   147.7960   119.5280 o          1 V6G      -0.551000
    113 C41        152.4360   149.7610   126.5990 c3         1 V6G       0.078900
@<TRIPOS>BOND
     1     1     2 ar  
     2     1     3 ar  
     3     1     7 1   
     4     2     4 ar  
     5     2    64 1   
     6     3     6 ar  
     7     3    50 1   
     8     4     5 ar  
     9     4    45 1   
    10     5     6 ar  
    11     5    65 1   
    12     6    66 1   
    13     7     8 2   
    14     7    67 1   
    15     8    15 1   
    16     8    50 1   
    17     9    10 1   
    18     9    11 1   
    19     9    12 1   
    20     9    50 1   
    21    10    11 1   
    22    10    68 1   
    23    10    69 1   
    24    11    14 1   
    25    11    70 1   
    26    12    51 2   
    27    12    52 1   
    28    13    52 1   
    29    13    60 1   
    30    13    61 2   
    31    14    71 1   
    32    14    72 1   
    33    14    73 1   
    34    15    53 1   
    35    15    62 2   
    36    16    17 1   
    37    16    53 1   
    38    16    74 1   
    39    16    75 1   
    40    17    18 1   
    41    17    76 1   
    42    17    77 1   
    43    18    19 1   
    44    18    54 2   
    45    19    20 1   
    46    19    22 2   
    47    20    21 1   
    48    20    53 1   
    49    20    78 1   
    50    21    79 1   
    51    21    80 1   
    52    21    81 1   
    53    22    55 1   
    54    22    56 1   
    55    23    24 ar  
    56    23    25 ar  
    57    23    55 1   
    58    24    28 ar  
    59    24    82 1   
    60    25    26 ar  
    61    25    83 1   
    62    26    27 ar  
    63    26    33 1   
    64    27    28 ar  
    65    27    48 1   
    66    28    32 1   
    67    29    56 1   
    68    29    57 1   
    69    29   112 2   
    70    30    31 2   
    71    30    57 1   
    72    30    84 1   
    73    31    56 1   
    74    31    85 1   
    75    32    86 1   
    76    32    87 1   
    77    32    88 1   
    78    33    89 1   
    79    33    90 1   
    80    33    91 1   
    81    34    35 ar  
    82    34    36 ar  
    83    34    57 1   
    84    35    39 ar  
    85    35    49 1   
    86    36    37 ar  
    87    36    92 1   
    88    37    38 ar  
    89    37    93 1   
    90    38    39 ar  
    91    38    58 1   
    92    39    40 1   
    93    40    59 2   
    94    40    94 1   
    95    41    42 1   
    96    41    45 1   
    97    41    98 1   
    98    41    99 1   
    99    42    63 1   
   100    42   100 1   
   101    42   101 1   
   102    43    44 1   
   103    43    46 1   
   104    43    47 1   
   105    43    63 1   
   106    44    45 1   
   107    44   102 1   
   108    44   103 1   
   109    45   104 1   
   110    46   105 1   
   111    46   106 1   
   112    46   107 1   
   113    47   108 1   
   114    47   109 1   
   115    47   110 1   
   116    51    60 1   
   117    52   111 1   
   118    54    55 1   
   119    58    59 1   
   120    58   113 1   
   121    95   113 1   
   122    96   113 1   
   123    97   113 1   
@<TRIPOS>SUBSTRUCTURE
     1 V6G         1 TEMP              0 ****  ****    0 ROOT
