@<TRIPOS>MOLECULE
V6H
   64    67     1     0     0
SMALL
abcg2


@<TRIPOS>ATOM
      1 C1          -7.0410    20.9350    11.9670 c3         1 V6H       0.109000
      2 C2          -6.6620    21.8060    10.7680 c3         1 V6H      -0.115400
      3 C3          -5.6990    21.1020     9.8130 c3         1 V6H       0.109000
      4 C4          -3.4270    22.1120    10.3440 c5         1 V6H       0.094000
      5 C5          -2.2830    21.6150    11.2340 c5         1 V6H      -0.091400
      6 C7          -3.7720    19.8140    10.6890 c          1 V6H       0.555000
      7 C9          -8.8170    23.8960    14.6560 ca         1 V6H       0.185900
      8 C17        -13.3240    22.8190    18.2650 ca         1 V6H       0.175000
      9 C16        -13.3650    21.6210    18.9560 ca         1 V6H      -0.130000
     10 C15        -12.3470    21.3270    19.8550 ca         1 V6H      -0.120000
     11 C14        -11.3440    22.2640    20.0350 ca         1 V6H       0.148000
     12 F          -10.3420    21.9860    20.9100 f          1 V6H      -0.180000
     13 C13        -11.3150    23.4650    19.3550 ca         1 V6H      -0.115000
     14 C12        -12.3220    23.7630    18.4390 ca         1 V6H      -0.103300
     15 C11        -12.2910    25.0590    17.6580 c3         1 V6H       0.300100
     16 C10        -10.5140    24.4370    16.0470 ca         1 V6H       0.425900
     17 N2          -9.2780    24.7300    15.5830 nb         1 V6H      -0.278000
     18 N4         -11.2280    23.3570    15.7250 nb         1 V6H      -0.334000
     19 C18        -10.7390    22.5090    14.8120 ca         1 V6H       0.453900
     20 N5         -11.4950    21.4040    14.5850 nu         1 V6H      -0.887100
     21 C19        -10.9650    20.0550    14.3790 c5         1 V6H       0.224500
     22 C23        -10.4170    19.4670    15.6930 c5         1 V6H      -0.101900
     23 C22        -11.6840    19.0980    16.5000 c5         1 V6H      -0.087900
     24 C21        -12.8170    18.9320    15.4430 c5         1 V6H      -0.087900
     25 C20        -12.1130    19.0870    14.0790 c5         1 V6H      -0.101900
     26 C8          -9.4800    22.7600    14.2080 ca         1 V6H      -0.370600
     27 O           -9.7200    21.7680    12.0570 o          1 V6H      -0.608100
     28 N           -7.6790    21.6820    13.0370 ns         1 V6H      -0.508900
     29 N1          -4.3610    20.9860    10.3620 n          1 V6H      -0.425800
     30 C6          -2.3170    20.0990    11.0250 c5         1 V6H      -0.166400
     31 H1          -7.7250    20.1480    11.6470 h1         1 V6H       0.059200
     32 H2          -6.1640    20.4450    12.3900 h1         1 V6H       0.059200
     33 H3          -6.2160    22.7400    11.1190 hc         1 V6H       0.055700
     34 H4          -7.5700    22.0750    10.2260 hc         1 V6H       0.055700
     35 H5          -5.6350    21.6470     8.8680 h1         1 V6H       0.060200
     36 H6          -6.0490    20.0910     9.6020 h1         1 V6H       0.060200
     37 H7          -3.9010    23.0150    10.7260 h1         1 V6H       0.047700
     38 H8          -3.0980    22.3010     9.3150 h1         1 V6H       0.047700
     39 H9          -1.3300    22.0760    10.9790 hc         1 V6H       0.057200
     40 H10         -2.5100    21.8470    12.2770 hc         1 V6H       0.057200
     41 H11         -7.8460    24.1440    14.2350 h4         1 V6H       0.013100
     42 H12        -14.1760    20.9260    18.7830 ha         1 V6H       0.137000
     43 H13        -12.3310    20.3960    20.4050 ha         1 V6H       0.137000
     44 H14        -10.4990    24.1580    19.5120 ha         1 V6H       0.135000
     45 H15        -12.3770    25.8830    18.3670 h1         1 V6H       0.064200
     46 H16        -13.1460    25.1230    16.9870 h1         1 V6H       0.064200
     47 H18        -12.3470    21.4400    15.1280 hn         1 V6H       0.481000
     48 H19        -10.2200    20.0780    13.5890 h1         1 V6H       0.092700
     49 H20         -9.8480    18.5670    15.4510 hc         1 V6H       0.057200
     50 H21         -9.7520    20.1560    16.2140 hc         1 V6H       0.057200
     51 H22        -11.9390    19.8840    17.2100 hc         1 V6H       0.044950
     52 H23        -11.5270    18.1820    17.0700 hc         1 V6H       0.044950
     53 H24        -13.5590    19.7250    15.5590 hc         1 V6H       0.044950
     54 H25        -13.3420    17.9810    15.5300 hc         1 V6H       0.044950
     55 H26        -11.6710    18.1330    13.7790 hc         1 V6H       0.057200
     56 H27        -12.7690    19.4260    13.2770 hc         1 V6H       0.057200
     57 H28         -7.1130    21.9920    13.8110 hn         1 V6H       0.313500
     58 H29         -1.7050    19.7850    10.1730 hc         1 V6H       0.076700
     59 H30         -1.9970    19.5190    11.8890 hc         1 V6H       0.076700
     60 O1          -4.3210    18.7120    10.6990 o          1 V6H      -0.560000
     61 C           -8.9800    22.0270    13.0150 c          1 V6H       0.627700
     62 N3         -11.0450    25.2930    16.9470 nu         1 V6H      -0.930100
     63 F1         -14.3160    23.0650    17.3690 f          1 V6H      -0.177000
     64 H17        -10.4740    26.0740    17.2260 hn         1 V6H       0.511000
@<TRIPOS>BOND
     1     1     2 1   
     2     1    28 1   
     3     1    31 1   
     4     1    32 1   
     5     2     3 1   
     6     2    33 1   
     7     2    34 1   
     8     3    29 1   
     9     3    35 1   
    10     3    36 1   
    11     4     5 1   
    12     4    29 1   
    13     4    37 1   
    14     4    38 1   
    15     5    30 1   
    16     5    39 1   
    17     5    40 1   
    18     6    29 1   
    19     6    30 1   
    20     6    60 2   
    21     7    17 ar  
    22     7    26 ar  
    23     7    41 1   
    24     8     9 ar  
    25     8    14 ar  
    26     8    63 1   
    27     9    10 ar  
    28     9    42 1   
    29    10    11 ar  
    30    10    43 1   
    31    11    12 1   
    32    11    13 ar  
    33    13    14 ar  
    34    13    44 1   
    35    14    15 1   
    36    15    45 1   
    37    15    46 1   
    38    15    62 1   
    39    16    17 ar  
    40    16    18 ar  
    41    16    62 1   
    42    18    19 ar  
    43    19    20 1   
    44    19    26 ar  
    45    20    21 1   
    46    20    47 1   
    47    21    22 1   
    48    21    25 1   
    49    21    48 1   
    50    22    23 1   
    51    22    49 1   
    52    22    50 1   
    53    23    24 1   
    54    23    51 1   
    55    23    52 1   
    56    24    25 1   
    57    24    53 1   
    58    24    54 1   
    59    25    55 1   
    60    25    56 1   
    61    26    61 1   
    62    27    61 2   
    63    28    57 1   
    64    28    61 1   
    65    30    58 1   
    66    30    59 1   
    67    62    64 1   
@<TRIPOS>SUBSTRUCTURE
     1 V6H         1 TEMP              0 ****  ****    0 ROOT
