@<TRIPOS>MOLECULE
V6H
   64    67     1     0     0
SMALL
No Charge or Current Charge


@<TRIPOS>ATOM
      1 C1          -6.6780    21.1660    12.0510 c3         1 V6H       0.109000
      2 C2          -6.5150    21.9900    10.7570 c3         1 V6H      -0.115400
      3 C3          -5.7260    21.2550     9.6540 c3         1 V6H       0.109000
      4 C4          -3.2750    21.8960    10.2790 c5         1 V6H       0.094000
      5 C5          -2.3500    21.1170    11.2650 c5         1 V6H      -0.091400
      6 C7          -4.0090    19.5980    10.4190 c          1 V6H       0.555000
      7 C9          -8.6010    23.8210    14.7860 ca         1 V6H       0.185900
      8 C17        -13.3480    22.9580    18.3560 ca         1 V6H       0.175000
      9 C16        -13.4480    21.7060    18.9880 ca         1 V6H      -0.130000
     10 C15        -12.4120    21.2540    19.8240 ca         1 V6H      -0.120000
     11 C14        -11.2830    22.0620    20.0280 ca         1 V6H       0.148000
     12 F          -10.2860    21.6300    20.8300 f          1 V6H      -0.180000
     13 C13        -11.1820    23.3160    19.4040 ca         1 V6H      -0.115000
     14 C12        -12.2130    23.7760    18.5540 ca         1 V6H      -0.103300
     15 C11        -12.0900    25.1340    17.8580 c3         1 V6H       0.300100
     16 C10        -10.3520    24.4380    16.1060 ca         1 V6H       0.425900
     17 N2          -9.0770    24.6270    15.7510 nb         1 V6H      -0.278000
     18 N4         -11.1990    23.5340    15.6010 nb         1 V6H      -0.334000
     19 C18        -10.7140    22.7170    14.6610 ca         1 V6H       0.453900
     20 N5         -11.6340    21.7640    14.2610 nu         1 V6H      -0.887100
     21 C19        -11.2310    20.4160    14.7360 c5         1 V6H       0.224500
     22 C23        -11.7670    20.2960    16.1850 c5         1 V6H      -0.101900
     23 C22        -11.8000    18.7510    16.3680 c5         1 V6H      -0.087900
     24 C21        -12.0610    18.1830    14.9310 c5         1 V6H      -0.087900
     25 C20        -12.1940    19.4400    14.0230 c5         1 V6H      -0.101900
     26 C8          -9.3920    22.8220    14.1860 ca         1 V6H      -0.370600
     27 O           -9.5100    21.4350    12.2260 o          1 V6H      -0.608100
     28 N           -7.4560    21.8830    13.0640 ns         1 V6H      -0.508900
     29 N1          -4.3440    20.9020    10.0430 n          1 V6H      -0.425800
     30 C6          -2.5200    19.6680    10.7380 c5         1 V6H      -0.166400
     31 H1          -7.1730    20.2120    11.8240 h1         1 V6H       0.059200
     32 H2          -5.6890    20.9400    12.4700 h1         1 V6H       0.059200
     33 H3          -6.0180    22.9390    10.9920 hc         1 V6H       0.055700
     34 H4          -7.5070    22.2420    10.3630 hc         1 V6H       0.055700
     35 H5          -5.6770    21.9010     8.7670 h1         1 V6H       0.060200
     36 H6          -6.2720    20.3480     9.3600 h1         1 V6H       0.060200
     37 H7          -3.6520    22.8290    10.7170 h1         1 V6H       0.047700
     38 H8          -2.7570    22.1330     9.3410 h1         1 V6H       0.047700
     39 H9          -1.3130    21.4690    11.2430 hc         1 V6H       0.057200
     40 H10         -2.7120    21.2060    12.2960 hc         1 V6H       0.057200
     41 H11         -7.5700    24.0040    14.4870 h4         1 V6H       0.013100
     42 H12        -14.3270    21.0870    18.8240 ha         1 V6H       0.137000
     43 H13        -12.4810    20.2850    20.3110 ha         1 V6H       0.137000
     44 H14        -10.2980    23.9260    19.5720 ha         1 V6H       0.135000
     45 H15        -12.1620    25.9250    18.6170 h1         1 V6H       0.064200
     46 H16        -12.9250    25.2830    17.1600 h1         1 V6H       0.064200
     47 H18        -12.5820    22.0600    14.4790 hn         1 V6H       0.481000
     48 H19        -10.1690    20.1450    14.6200 h1         1 V6H       0.092700
     49 H20        -11.1190    20.7890    16.9180 hc         1 V6H       0.057200
     50 H21        -12.7720    20.7200    16.2970 hc         1 V6H       0.057200
     51 H22        -12.5760    18.4480    17.0800 hc         1 V6H       0.044950
     52 H23        -10.8460    18.3810    16.7630 hc         1 V6H       0.044950
     53 H24        -12.9600    17.5570    14.8900 hc         1 V6H       0.044950
     54 H25        -11.2230    17.5530    14.6080 hc         1 V6H       0.044950
     55 H26        -11.8990    19.2430    12.9870 hc         1 V6H       0.057200
     56 H27        -13.2300    19.8010    14.0070 hc         1 V6H       0.057200
     57 H28         -6.9590    22.3520    13.8090 hn         1 V6H       0.313500
     58 H29         -1.9680    19.5820     9.7950 hc         1 V6H       0.076700
     59 H30         -2.2110    18.8730    11.4240 hc         1 V6H       0.076700
     60 O1          -4.8110    18.7050    10.6530 o          1 V6H      -0.560000
     61 C           -8.8290    21.9740    13.0850 c          1 V6H       0.627700
     62 N3         -10.8120    25.2500    17.1280 nu         1 V6H      -0.930100
     63 F1         -14.3580    23.3640    17.5530 f          1 V6H      -0.177000
     64 H17        -10.1310    25.9230    17.4800 hn         1 V6H       0.511000
@<TRIPOS>BOND
     1     1     2 1   
     2     1    28 1   
     3     1    31 1   
     4     1    32 1   
     5     2     3 1   
     6     2    33 1   
     7     2    34 1   
     8     3    29 1   
     9     3    35 1   
    10     3    36 1   
    11     4     5 1   
    12     4    29 1   
    13     4    37 1   
    14     4    38 1   
    15     5    30 1   
    16     5    39 1   
    17     5    40 1   
    18     6    29 1   
    19     6    30 1   
    20     6    60 2   
    21     7    17 ar  
    22     7    26 ar  
    23     7    41 1   
    24     8     9 ar  
    25     8    14 ar  
    26     8    63 1   
    27     9    10 ar  
    28     9    42 1   
    29    10    11 ar  
    30    10    43 1   
    31    11    12 1   
    32    11    13 ar  
    33    13    14 ar  
    34    13    44 1   
    35    14    15 1   
    36    15    45 1   
    37    15    46 1   
    38    15    62 1   
    39    16    17 ar  
    40    16    18 ar  
    41    16    62 1   
    42    18    19 ar  
    43    19    20 1   
    44    19    26 ar  
    45    20    21 1   
    46    20    47 1   
    47    21    22 1   
    48    21    25 1   
    49    21    48 1   
    50    22    23 1   
    51    22    49 1   
    52    22    50 1   
    53    23    24 1   
    54    23    51 1   
    55    23    52 1   
    56    24    25 1   
    57    24    53 1   
    58    24    54 1   
    59    25    55 1   
    60    25    56 1   
    61    26    61 1   
    62    27    61 2   
    63    28    57 1   
    64    28    61 1   
    65    30    58 1   
    66    30    59 1   
    67    62    64 1   
@<TRIPOS>SUBSTRUCTURE
     1 V6H         1 TEMP              0 ****  ****    0 ROOT
