@<TRIPOS>MOLECULE
V6I
   20    20     1     0     0
SMALL
abcg2


@<TRIPOS>ATOM
      1 O1          -2.1870    16.7650   -37.0500 o          1 V6I      -0.539500
      2 C1          -1.9430    14.6630   -35.0030 ca         1 V6I       0.209000
      3 C5           0.3950    14.0500   -34.7610 ca         1 V6I      -0.130000
      4 C6          -0.6290    14.9700   -34.6620 ca         1 V6I       0.161000
      5 C4           0.1000    12.7750   -35.2340 ca         1 V6I      -0.079000
      6 C3          -1.2040    12.4400   -35.5850 ca         1 V6I      -0.114000
      7 C2          -2.2210    13.3790   -35.4600 ca         1 V6I      -0.080000
      8 F           -0.3570    16.2170   -34.2120 f          1 V6I      -0.176000
      9 N           -2.9770    15.6370   -34.8880 nu         1 V6I      -0.897100
     10 S           -3.3480    16.5910   -36.2060 s6         1 V6I       1.206100
     11 O           -3.9970    17.7590   -35.6560 o          1 V6I      -0.539500
     12 C           -4.5350    15.6270   -37.0950 c3         1 V6I      -0.350100
     13 H1           1.4000    14.3360   -34.4810 ha         1 V6I       0.139000
     14 H2           0.8930    12.0440   -35.3240 ha         1 V6I       0.124000
     15 H3          -1.4330    11.4470   -35.9450 ha         1 V6I       0.124000
     16 H4          -3.2420    13.1240   -35.7100 ha         1 V6I       0.125000
     17 H5          -2.9260    16.2270   -34.0630 hn         1 V6I       0.502000
     18 H6          -5.3800    15.4330   -36.4400 h1         1 V6I       0.105367
     19 H7          -4.8330    16.2240   -37.9570 h1         1 V6I       0.105367
     20 H8          -4.0650    14.7020   -37.4200 h1         1 V6I       0.105367
@<TRIPOS>BOND
     1     1    10 2   
     2     2     4 ar  
     3     2     7 ar  
     4     2     9 1   
     5     3     4 ar  
     6     3     5 ar  
     7     3    13 1   
     8     4     8 1   
     9     5     6 ar  
    10     5    14 1   
    11     6     7 ar  
    12     6    15 1   
    13     7    16 1   
    14     9    10 1   
    15     9    17 1   
    16    10    11 2   
    17    10    12 1   
    18    12    18 1   
    19    12    19 1   
    20    12    20 1   
@<TRIPOS>SUBSTRUCTURE
     1 V6I         1 TEMP              0 ****  ****    0 ROOT
