@<TRIPOS>MOLECULE
V6I
   20    20     1     0     0
SMALL
No Charge or Current Charge


@<TRIPOS>ATOM
      1 O1          -2.3600    17.1360   -36.9160 o          1 V6I      -0.539500
      2 C1          -1.9060    14.7720   -35.0060 ca         1 V6I       0.209000
      3 C5           0.3940    13.9630   -34.7350 ca         1 V6I      -0.130000
      4 C6          -0.5600    14.9890   -34.6200 ca         1 V6I       0.161000
      5 C4           0.0140    12.7030   -35.2270 ca         1 V6I      -0.079000
      6 C3          -1.3230    12.4720   -35.5960 ca         1 V6I      -0.114000
      7 C2          -2.2770    13.4990   -35.4810 ca         1 V6I      -0.080000
      8 F           -0.1740    16.1950   -34.1360 f          1 V6I      -0.176000
      9 N           -2.8620    15.7900   -34.8850 nu         1 V6I      -0.897100
     10 S           -3.5070    16.6460   -36.1510 s6         1 V6I       1.206100
     11 O           -4.4420    17.5880   -35.5340 o          1 V6I      -0.539500
     12 C           -4.4140    15.4740   -37.1370 c3         1 V6I      -0.350100
     13 H1           1.4240    14.1470   -34.4400 ha         1 V6I       0.139000
     14 H2           0.7500    11.9070   -35.3160 ha         1 V6I       0.124000
     15 H3          -1.6210    11.4930   -35.9650 ha         1 V6I       0.124000
     16 H4          -3.3110    13.2970   -35.7470 ha         1 V6I       0.125000
     17 H5          -2.5640    16.5560   -34.2930 hn         1 V6I       0.502000
     18 H6          -5.1320    14.9760   -36.4790 h1         1 V6I       0.105367
     19 H7          -4.9230    16.0380   -37.9250 h1         1 V6I       0.105367
     20 H8          -3.6950    14.7690   -37.5630 h1         1 V6I       0.105367
@<TRIPOS>BOND
     1     1    10 2   
     2     2     4 ar  
     3     2     7 ar  
     4     2     9 1   
     5     3     4 ar  
     6     3     5 ar  
     7     3    13 1   
     8     4     8 1   
     9     5     6 ar  
    10     5    14 1   
    11     6     7 ar  
    12     6    15 1   
    13     7    16 1   
    14     9    10 1   
    15     9    17 1   
    16    10    11 2   
    17    10    12 1   
    18    12    18 1   
    19    12    19 1   
    20    12    20 1   
@<TRIPOS>SUBSTRUCTURE
     1 V6I         1 TEMP              0 ****  ****    0 ROOT
