@<TRIPOS>MOLECULE
V6K
   41    42     1     0     0
SMALL
No Charge or Current Charge


@<TRIPOS>ATOM
      1 C1         -34.4240    -8.2710   -12.0300 ca         1 V6K      -0.185500
      2 C10        -34.7020    -2.9500   -12.9500 cg         1 V6K       0.292700
      3 C11        -33.8110    -2.1640   -10.7430 c          1 V6K       0.616300
      4 C14        -33.9490     0.3330   -10.3570 c3         1 V6K       0.104000
      5 C15        -35.0060     0.4770    -9.2310 c3         1 V6K       0.150800
      6 C17        -35.7450     1.6450    -7.1670 c6         1 V6K       0.135300
      7 C18        -35.6040     2.9090    -6.2540 c6         1 V6K       0.154100
      8 C2         -34.2690    -7.0390   -11.3700 ca         1 V6K      -0.028000
      9 C20        -34.8870     4.2270    -8.1400 c6         1 V6K       0.154100
     10 C21        -34.9610     2.9840    -9.0890 c6         1 V6K       0.135300
     11 C3         -33.9890    -5.8630   -12.0970 ca         1 V6K      -0.141800
     12 C4         -33.8360    -5.9510   -13.4990 ca         1 V6K      -0.028000
     13 C5         -33.9910    -7.1850   -14.1550 ca         1 V6K      -0.185500
     14 C6         -34.2880    -8.3410   -13.4240 ca         1 V6K       0.168100
     15 C8         -33.8230    -4.5910   -11.3520 cf         1 V6K      -0.003200
     16 C9         -34.0970    -3.2910   -11.6990 ce         1 V6K      -0.127900
     17 N13        -34.1300    -0.8850   -11.1620 ns         1 V6K      -0.501900
     18 N16        -34.8460     1.6740    -8.3640 n3         1 V6K      -0.717600
     19 N22        -35.1960    -2.6220   -13.9550 n1         1 V6K      -0.470000
     20 O12        -33.3140    -2.3530    -9.6410 o          1 V6K      -0.608100
     21 O19        -34.6190     3.8360    -6.7720 os         1 V6K      -0.446000
     22 O7         -34.4340    -9.5300   -14.0720 oh         1 V6K      -0.528100
     23 H1         -34.6480    -9.1630   -11.4510 ha         1 V6K       0.129000
     24 H2         -32.9460     0.3210    -9.9110 h1         1 V6K       0.065200
     25 H3         -34.0080     1.1970   -11.0300 h1         1 V6K       0.065200
     26 H4         -36.0030     0.4840    -9.6930 h1         1 V6K       0.039200
     27 H5         -34.9530    -0.4260    -8.6080 h1         1 V6K       0.039200
     28 H7         -35.5370     0.7510    -6.5610 h1         1 V6K       0.039450
     29 H8         -35.3040     2.6050    -5.2410 h1         1 V6K       0.047200
     30 H9         -36.5740     3.4210    -6.1770 h1         1 V6K       0.047200
     31 H10        -34.3790    -6.9990   -10.2870 ha         1 V6K       0.124500
     32 H11        -34.0930     4.9070    -8.4790 h1         1 V6K       0.047200
     33 H12        -35.8380     4.7780    -8.1760 h1         1 V6K       0.047200
     34 H13        -35.9120     3.0290    -9.6410 h1         1 V6K       0.039450
     35 H14        -34.1600     3.0780    -9.8360 h1         1 V6K       0.039450
     36 H15        -33.5720    -5.0780   -14.0890 ha         1 V6K       0.124500
     37 H16        -33.8710    -7.2420   -15.2340 ha         1 V6K       0.129000
     38 H17        -33.4060    -4.7480   -10.3550 ha         1 V6K       0.206000
     39 H18        -34.5330    -0.7920   -12.0870 hn         1 V6K       0.322500
     40 H20        -34.6360   -10.2220   -13.4070 ho         1 V6K       0.470000
     41 H6         -36.7950     1.5680    -7.4860 h1         1 V6K       0.039450
@<TRIPOS>BOND
     1     1     8 ar  
     2     1    14 ar  
     3     1    23 1   
     4     2    16 1   
     5     2    19 3   
     6     3    16 1   
     7     3    17 1   
     8     3    20 2   
     9     4     5 1   
    10     4    17 1   
    11     4    24 1   
    12     4    25 1   
    13     5    18 1   
    14     5    26 1   
    15     5    27 1   
    16     6     7 1   
    17     6    18 1   
    18     6    28 1   
    19     6    41 1   
    20     7    21 1   
    21     7    29 1   
    22     7    30 1   
    23     8    11 ar  
    24     8    31 1   
    25     9    10 1   
    26     9    21 1   
    27     9    32 1   
    28     9    33 1   
    29    10    18 1   
    30    10    34 1   
    31    10    35 1   
    32    11    12 ar  
    33    11    15 1   
    34    12    13 ar  
    35    12    36 1   
    36    13    14 ar  
    37    13    37 1   
    38    14    22 1   
    39    15    16 2   
    40    15    38 1   
    41    17    39 1   
    42    22    40 1   
@<TRIPOS>SUBSTRUCTURE
     1 V6K         1 TEMP              0 ****  ****    0 ROOT
