@<TRIPOS>MOLECULE
V6K
   41    42     1     0     0
SMALL
abcg2


@<TRIPOS>ATOM
      1 C1         -33.9900    -8.1910   -11.9080 ca         1 V6K      -0.185500
      2 C10        -34.4880    -2.8180   -13.0470 cg         1 V6K       0.292700
      3 C11        -33.9140    -2.1510   -10.7030 c          1 V6K       0.616300
      4 C14        -33.9010     0.2580   -10.2320 c3         1 V6K       0.104000
      5 C15        -35.1540     0.5640    -9.4090 c3         1 V6K       0.150800
      6 C17        -35.9820     1.7380    -7.4530 c6         1 V6K       0.135300
      7 C18        -35.4990     2.6280    -6.3050 c6         1 V6K       0.154100
      8 C2         -33.9130    -6.9430   -11.3220 ca         1 V6K      -0.028000
      9 C20        -34.9590     4.0660    -8.1000 c6         1 V6K       0.154100
     10 C21        -34.6590     2.9250    -9.0760 c6         1 V6K       0.135300
     11 C3         -34.1130    -5.7620   -12.0630 ca         1 V6K      -0.141800
     12 C4         -34.3980    -5.8940   -13.4370 ca         1 V6K      -0.028000
     13 C5         -34.4750    -7.1350   -14.0330 ca         1 V6K      -0.185500
     14 C6         -34.2700    -8.2920   -13.2730 ca         1 V6K       0.168100
     15 C8         -33.9970    -4.5180   -11.3500 cf         1 V6K      -0.003200
     16 C9         -34.1410    -3.2240   -11.7350 ce         1 V6K      -0.127900
     17 N13        -34.0960    -0.8820   -11.1120 ns         1 V6K      -0.501900
     18 N16        -34.9190     1.6230    -8.4420 n3         1 V6K      -0.717600
     19 N22        -34.7670    -2.4280   -14.0980 n1         1 V6K      -0.470000
     20 O12        -33.5660    -2.4400    -9.5580 o          1 V6K      -0.608100
     21 O19        -34.6460     3.6840    -6.7660 os         1 V6K      -0.446000
     22 O7         -34.3530    -9.4800   -13.9120 oh         1 V6K      -0.528100
     23 H1         -33.8330    -9.0880   -11.3220 ha         1 V6K       0.129000
     24 H2         -33.0720     0.0430    -9.5590 h1         1 V6K       0.065200
     25 H3         -33.6250     1.1060   -10.8570 h1         1 V6K       0.065200
     26 H4         -35.9830     0.8130   -10.0940 h1         1 V6K       0.039200
     27 H5         -35.4370    -0.3390    -8.8650 h1         1 V6K       0.039200
     28 H7         -36.2140     0.7480    -7.0580 h1         1 V6K       0.039450
     29 H8         -34.9010     2.0470    -5.6010 h1         1 V6K       0.047200
     30 H9         -36.3590     3.0490    -5.7720 h1         1 V6K       0.047200
     31 H10        -33.6940    -6.8680   -10.2640 ha         1 V6K       0.124500
     32 H11        -34.3480     4.9370    -8.3340 h1         1 V6K       0.047200
     33 H12        -36.0110     4.3660    -8.1640 h1         1 V6K       0.047200
     34 H13        -35.2830     3.0610    -9.9750 h1         1 V6K       0.039450
     35 H14        -33.6140     2.9650    -9.3910 h1         1 V6K       0.039450
     36 H15        -34.5600    -5.0210   -14.0510 ha         1 V6K       0.124500
     37 H16        -34.6910    -7.2300   -15.0890 ha         1 V6K       0.129000
     38 H17        -33.7410    -4.6190   -10.3010 ha         1 V6K       0.206000
     39 H18        -34.4140    -0.7030   -12.0510 hn         1 V6K       0.322500
     40 H20        -34.1980   -10.2110   -13.2970 ho         1 V6K       0.470000
     41 H6         -36.9110     2.1350    -7.8930 h1         1 V6K       0.039450
@<TRIPOS>BOND
     1     1     8 ar  
     2     1    14 ar  
     3     1    23 1   
     4     2    16 1   
     5     2    19 3   
     6     3    16 1   
     7     3    17 1   
     8     3    20 2   
     9     4     5 1   
    10     4    17 1   
    11     4    24 1   
    12     4    25 1   
    13     5    18 1   
    14     5    26 1   
    15     5    27 1   
    16     6     7 1   
    17     6    18 1   
    18     6    28 1   
    19     6    41 1   
    20     7    21 1   
    21     7    29 1   
    22     7    30 1   
    23     8    11 ar  
    24     8    31 1   
    25     9    10 1   
    26     9    21 1   
    27     9    32 1   
    28     9    33 1   
    29    10    18 1   
    30    10    34 1   
    31    10    35 1   
    32    11    12 ar  
    33    11    15 1   
    34    12    13 ar  
    35    12    36 1   
    36    13    14 ar  
    37    13    37 1   
    38    14    22 1   
    39    15    16 2   
    40    15    38 1   
    41    17    39 1   
    42    22    40 1   
@<TRIPOS>SUBSTRUCTURE
     1 V6K         1 TEMP              0 ****  ****    0 ROOT
