@<TRIPOS>MOLECULE
V6L
   29    30     1     0     0
SMALL
No Charge or Current Charge


@<TRIPOS>ATOM
      1 C1          47.0200    15.4230   -17.8920 c3         1 V6L      -0.120400
      2 C2          47.3400    16.2870   -16.7060 cc         1 V6L       0.247300
      3 C3          46.8230    16.0390   -15.4290 cc         1 V6L      -0.157000
      4 C4          47.3130    17.0060   -14.5980 cd         1 V6L      -0.210600
      5 C5          47.0120    17.1170   -13.1450 c          1 V6L       0.634700
      6 O1          46.2820    16.3340   -12.5520 o          1 V6L      -0.583100
      7 N1          47.6350    18.1860   -12.5290 ns         1 V6L      -0.500900
      8 C6          47.3900    18.4050   -11.0990 c5         1 V6L       0.101700
      9 C7          48.4700    19.4100   -10.6420 c5         1 V6L      -0.094900
     10 C8          47.8390    19.9170    -9.3150 c5         1 V6L      -0.077900
     11 C9          46.2950    19.9170    -9.5850 c5         1 V6L      -0.077900
     12 C10         46.1320    19.3020   -11.0070 c5         1 V6L      -0.094900
     13 N2          48.1160    17.8020   -15.4370 na         1 V6L      -0.011200
     14 N3          48.1270    17.3420   -16.7560 nd         1 V6L      -0.506800
     15 H1          47.5250    15.7830   -18.7960 hc         1 V6L       0.050033
     16 H2          47.3390    14.3900   -17.7150 hc         1 V6L       0.050033
     17 H3          45.9410    15.4190   -18.0870 hc         1 V6L       0.050033
     18 H4          46.1570    15.2220   -15.1710 ha         1 V6L       0.159000
     19 H5          48.2260    18.7810   -13.0910 hn         1 V6L       0.305500
     20 H6          47.3420    17.4960   -10.4800 h1         1 V6L       0.085700
     21 H7          49.4480    18.9390   -10.4890 hc         1 V6L       0.048700
     22 H8          48.6070    20.2350   -11.3520 hc         1 V6L       0.048700
     23 H9          48.0850    19.2460    -8.4830 hc         1 V6L       0.046700
     24 H10         48.2110    20.9110    -9.0410 hc         1 V6L       0.046700
     25 H11         45.8680    20.9250    -9.5330 hc         1 V6L       0.046700
     26 H12         45.7720    19.3140    -8.8320 hc         1 V6L       0.046700
     27 H13         46.1270    20.0890   -11.7720 hc         1 V6L       0.048700
     28 H14         45.2000    18.7360   -11.1150 hc         1 V6L       0.048700
     29 H15         48.6510    18.6280   -15.1700 hn         1 V6L       0.371000
@<TRIPOS>BOND
     1     1     2 1   
     2     1    15 1   
     3     1    16 1   
     4     1    17 1   
     5     2     3 1   
     6     2    14 2   
     7     3     4 2   
     8     3    18 1   
     9     4     5 1   
    10     4    13 1   
    11     5     6 2   
    12     5     7 1   
    13     7     8 1   
    14     7    19 1   
    15     8     9 1   
    16     8    12 1   
    17     8    20 1   
    18     9    10 1   
    19     9    21 1   
    20     9    22 1   
    21    10    11 1   
    22    10    23 1   
    23    10    24 1   
    24    11    12 1   
    25    11    25 1   
    26    11    26 1   
    27    12    27 1   
    28    12    28 1   
    29    13    14 1   
    30    13    29 1   
@<TRIPOS>SUBSTRUCTURE
     1 V6L         1 TEMP              0 ****  ****    0 ROOT
