@<TRIPOS>MOLECULE
V6L
   29    30     1     0     0
SMALL
abcg2


@<TRIPOS>ATOM
      1 C1          47.0610    15.5270   -18.0100 c3         1 V6L      -0.120400
      2 C2          47.3420    16.1910   -16.7030 cc         1 V6L       0.247300
      3 C3          46.6960    15.9930   -15.4650 cc         1 V6L      -0.157000
      4 C4          47.3280    16.8460   -14.5790 cd         1 V6L      -0.210600
      5 C5          47.0590    17.0430   -13.1360 c          1 V6L       0.634700
      6 O1          46.4910    16.1620   -12.4850 o          1 V6L      -0.583100
      7 N1          47.4780    18.2080   -12.6030 ns         1 V6L      -0.500900
      8 C6          47.3240    18.5480   -11.2000 c5         1 V6L       0.101700
      9 C7          48.4350    19.4700   -10.6920 c5         1 V6L      -0.094900
     10 C8          47.8790    20.0410    -9.3750 c5         1 V6L      -0.077900
     11 C9          46.3300    19.9020    -9.4660 c5         1 V6L      -0.077900
     12 C10         46.0450    19.3260   -10.8630 c5         1 V6L      -0.094900
     13 N2          48.2830    17.4910   -15.2960 na         1 V6L      -0.011200
     14 N3          48.3140    17.0990   -16.5820 nd         1 V6L      -0.506800
     15 H1          47.7170    15.9230   -18.7850 hc         1 V6L       0.050033
     16 H2          47.2170    14.4480   -17.9420 hc         1 V6L       0.050033
     17 H3          46.0250    15.6890   -18.3160 hc         1 V6L       0.050033
     18 H4          45.8750    15.3330   -15.2450 ha         1 V6L       0.159000
     19 H5          47.7850    18.9460   -13.2200 hn         1 V6L       0.305500
     20 H6          47.3330    17.6100   -10.6430 h1         1 V6L       0.085700
     21 H7          49.3860    18.9510   -10.5700 hc         1 V6L       0.048700
     22 H8          48.5840    20.2710   -11.4230 hc         1 V6L       0.048700
     23 H9          48.2590    19.4750    -8.5240 hc         1 V6L       0.046700
     24 H10         48.1870    21.0770    -9.2310 hc         1 V6L       0.046700
     25 H11         45.8220    20.8540    -9.3120 hc         1 V6L       0.046700
     26 H12         45.9700    19.2180    -8.6960 hc         1 V6L       0.046700
     27 H13         45.9260    20.1290   -11.5950 hc         1 V6L       0.048700
     28 H14         45.1520    18.7010   -10.9000 hc         1 V6L       0.048700
     29 H15         48.9890    18.1280   -14.9610 hn         1 V6L       0.371000
@<TRIPOS>BOND
     1     1     2 1   
     2     1    15 1   
     3     1    16 1   
     4     1    17 1   
     5     2     3 1   
     6     2    14 2   
     7     3     4 2   
     8     3    18 1   
     9     4     5 1   
    10     4    13 1   
    11     5     6 2   
    12     5     7 1   
    13     7     8 1   
    14     7    19 1   
    15     8     9 1   
    16     8    12 1   
    17     8    20 1   
    18     9    10 1   
    19     9    21 1   
    20     9    22 1   
    21    10    11 1   
    22    10    23 1   
    23    10    24 1   
    24    11    12 1   
    25    11    25 1   
    26    11    26 1   
    27    12    27 1   
    28    12    28 1   
    29    13    14 1   
    30    13    29 1   
@<TRIPOS>SUBSTRUCTURE
     1 V6L         1 TEMP              0 ****  ****    0 ROOT
