@<TRIPOS>MOLECULE
V6M
   31    33     1     0     0
SMALL
No Charge or Current Charge


@<TRIPOS>ATOM
      1 C01         24.8760   -41.2490    -7.2160 cc         1 V6M      -0.066300
      2 C03         25.6530   -40.0770    -7.1990 cd         1 V6M      -0.137400
      3 C04         24.7930   -38.9230    -7.4320 ca         1 V6M      -0.083800
      4 C05         23.5310   -39.4210    -7.6070 ca         1 V6M      -0.066200
      5 C06         25.3170   -42.6760    -7.0780 c          1 V6M       0.724200
      6 C07         27.0500   -39.9150    -6.7340 ca         1 V6M       0.049200
      7 C08         22.4230   -38.5890    -7.8440 ca         1 V6M      -0.096300
      8 C11         25.0410   -37.5400    -7.4460 ca         1 V6M      -0.072000
      9 C12         23.9520   -36.6760    -7.6860 ca         1 V6M      -0.162000
     10 C13         22.6530   -37.1960    -7.8890 ca         1 V6M      -0.122000
     11 C14         21.0260   -39.1620    -8.0380 c3         1 V6M      -0.034800
     12 C15         27.5380   -40.6300    -5.6190 ca         1 V6M      -0.092500
     13 C16         27.9150   -39.0040    -7.3790 ca         1 V6M      -0.092500
     14 C17         29.2350   -38.8220    -6.9310 ca         1 V6M      -0.125000
     15 C18         28.8570   -40.4470    -5.1660 ca         1 V6M      -0.125000
     16 C19         29.7070   -39.5440    -5.8230 ca         1 V6M      -0.138000
     17 N02         23.5640   -40.7970    -7.4820 na         1 V6M      -0.194700
     18 O09         24.4430   -43.5330    -7.0860 o          1 V6M      -0.704500
     19 O10         26.5040   -42.9650    -7.0380 o          1 V6M      -0.704500
     20 H1          26.0300   -37.1300    -7.2650 ha         1 V6M       0.106000
     21 H2          24.1130   -35.6000    -7.7070 ha         1 V6M       0.089000
     22 H3          21.8260   -36.5120    -8.0690 ha         1 V6M       0.087000
     23 H4          21.0010   -39.8580    -8.8850 hc         1 V6M       0.031033
     24 H5          20.6980   -39.7070    -7.1440 hc         1 V6M       0.031033
     25 H6          20.2880   -38.3750    -8.2350 hc         1 V6M       0.031033
     26 H7          26.8840   -41.3090    -5.0790 ha         1 V6M       0.115500
     27 H8          27.5730   -38.4590    -8.2540 ha         1 V6M       0.115500
     28 H9          29.8920   -38.1250    -7.4460 ha         1 V6M       0.091500
     29 H10         29.2160   -41.0010    -4.3020 ha         1 V6M       0.091500
     30 H11         30.7270   -39.4020    -5.4750 ha         1 V6M       0.088000
     31 H12         22.7600   -41.4080    -7.5760 hn         1 V6M       0.367000
@<TRIPOS>BOND
     1     1     2 2   
     2     1     5 1   
     3     1    17 1   
     4     2     3 1   
     5     2     6 1   
     6     3     4 ar  
     7     3     8 ar  
     8     4     7 ar  
     9     4    17 1   
    10     5    18 1   
    11     5    19 1   
    12     6    12 ar  
    13     6    13 ar  
    14     7    10 ar  
    15     7    11 1   
    16     8     9 ar  
    17     8    20 1   
    18     9    10 ar  
    19     9    21 1   
    20    10    22 1   
    21    11    23 1   
    22    11    24 1   
    23    11    25 1   
    24    12    15 ar  
    25    12    26 1   
    26    13    14 ar  
    27    13    27 1   
    28    14    16 ar  
    29    14    28 1   
    30    15    16 ar  
    31    15    29 1   
    32    16    30 1   
    33    17    31 1   
@<TRIPOS>SUBSTRUCTURE
     1 V6M         1 TEMP              0 ****  ****    0 ROOT
