@<TRIPOS>MOLECULE
V6M
   31    33     1     0     0
SMALL
bcc


@<TRIPOS>ATOM
      1 C01         24.8830   -41.1450    -7.1680 cc         1 V6M      -0.066300
      2 C03         25.6580   -40.0130    -7.0240 cd         1 V6M      -0.137400
      3 C04         24.7970   -38.8930    -7.2780 ca         1 V6M      -0.083800
      4 C05         23.5180   -39.4130    -7.5680 ca         1 V6M      -0.066200
      5 C06         25.1900   -42.6240    -7.1060 c          1 V6M       0.934800
      6 C07         27.0730   -39.8940    -6.6530 ca         1 V6M       0.049200
      7 C08         22.4100   -38.6070    -7.8630 ca         1 V6M      -0.096300
      8 C11         24.9760   -37.5030    -7.2660 ca         1 V6M      -0.090000
      9 C12         23.8960   -36.6960    -7.5530 ca         1 V6M      -0.180000
     10 C13         22.6340   -37.2430    -7.8500 ca         1 V6M      -0.140000
     11 C14         21.0730   -39.2100    -8.1690 c3         1 V6M      -0.034800
     12 C15         27.5920   -40.5300    -5.5230 ca         1 V6M      -0.110500
     13 C16         27.9300   -39.0900    -7.4070 ca         1 V6M      -0.110500
     14 C17         29.2650   -38.9350    -7.0530 ca         1 V6M      -0.143000
     15 C18         28.9230   -40.3780    -5.1680 ca         1 V6M      -0.143000
     16 C19         29.7680   -39.5810    -5.9330 ca         1 V6M      -0.156000
     17 N02         23.6090   -40.7660    -7.4890 na         1 V6M      -0.144400
     18 O09         24.1940   -43.3670    -7.2210 o          1 V6M      -0.809800
     19 O10         26.3790   -42.9540    -6.9670 o          1 V6M      -0.809800
     20 H1          25.9410   -37.0690    -7.0340 ha         1 V6M       0.124000
     21 H2          24.0140   -35.6200    -7.5500 ha         1 V6M       0.107000
     22 H3          21.8100   -36.5750    -8.0720 ha         1 V6M       0.105000
     23 H4          21.1200   -39.8740    -9.0340 hc         1 V6M       0.031033
     24 H5          20.7010   -39.8040    -7.3310 hc         1 V6M       0.031033
     25 H6          20.3350   -38.4390    -8.3830 hc         1 V6M       0.031033
     26 H7          26.9410   -41.1420    -4.9150 ha         1 V6M       0.133500
     27 H8          27.5540   -38.5910    -8.2920 ha         1 V6M       0.133500
     28 H9          29.9110   -38.3130    -7.6580 ha         1 V6M       0.109500
     29 H10         29.3030   -40.8810    -4.2870 ha         1 V6M       0.109500
     30 H11         30.8080   -39.4640    -5.6540 ha         1 V6M       0.106000
     31 H12         22.8780   -41.4380    -7.6590 hn         1 V6M       0.316700
@<TRIPOS>BOND
     1     1     2 2   
     2     1     5 1   
     3     1    17 1   
     4     2     3 1   
     5     2     6 1   
     6     3     4 ar  
     7     3     8 ar  
     8     4     7 ar  
     9     4    17 1   
    10     5    18 1   
    11     5    19 1   
    12     6    12 ar  
    13     6    13 ar  
    14     7    10 ar  
    15     7    11 1   
    16     8     9 ar  
    17     8    20 1   
    18     9    10 ar  
    19     9    21 1   
    20    10    22 1   
    21    11    23 1   
    22    11    24 1   
    23    11    25 1   
    24    12    15 ar  
    25    12    26 1   
    26    13    14 ar  
    27    13    27 1   
    28    14    16 ar  
    29    14    28 1   
    30    15    16 ar  
    31    15    29 1   
    32    16    30 1   
    33    17    31 1   
@<TRIPOS>SUBSTRUCTURE
     1 V6M         1 TEMP              0 ****  ****    0 ROOT
