@<TRIPOS>MOLECULE
V6N
   43    45     1     0     0
SMALL
abcg2


@<TRIPOS>ATOM
      1 C1         -34.5010    -6.2530   -12.0380 ca         1 V6N      -0.088800
      2 C10        -34.8290    -5.0450   -11.3090 ce         1 V6N      -0.014200
      3 C11        -34.6910    -3.7370   -11.6280 cf         1 V6N      -0.117900
      4 C12        -34.0970    -3.2730   -12.8300 ch         1 V6N       0.286700
      5 C13        -35.1690    -2.7060   -10.6350 c          1 V6N       0.616300
      6 C16        -35.4600    -0.3160   -10.1640 c3         1 V6N       0.106000
      7 C17        -34.3700     0.0650    -9.1600 c3         1 V6N       0.144800
      8 C19        -33.9610     1.1680    -7.0500 c6         1 V6N       0.128800
      9 C2         -34.2150    -6.2850   -13.3940 ca         1 V6N      -0.022000
     10 C20        -34.4920     2.2100    -6.0840 c6         1 V6N       0.152600
     11 C22        -35.3970     3.4450    -7.8630 c6         1 V6N       0.152600
     12 C23        -34.8860     2.4220    -8.8620 c6         1 V6N       0.128800
     13 C3         -33.9260    -7.5260   -13.9840 ca         1 V6N      -0.084000
     14 C4         -33.9210    -8.7320   -13.2070 ca         1 V6N      -0.131000
     15 C5         -34.2220    -8.6860   -11.8280 ca         1 V6N      -0.056000
     16 C6         -34.5110    -7.4710   -11.2730 ca         1 V6N      -0.112000
     17 C7         -33.6000    -9.7320   -14.1250 cc         1 V6N      -0.192100
     18 N15        -35.0470    -1.4210   -11.0120 ns         1 V6N      -0.501900
     19 N18        -34.8110     1.1010    -8.2380 n3         1 V6N      -0.719600
     20 N24        -33.6080    -2.8360   -13.7800 n1         1 V6N      -0.461000
     21 N8         -33.4460    -9.1050   -15.3050 na         1 V6N       0.010500
     22 N9         -33.6320    -7.7790   -15.2780 nc         1 V6N      -0.265400
     23 O14        -35.6510    -3.0470    -9.5560 o          1 V6N      -0.606100
     24 O21        -34.5750     3.4940    -6.6990 os         1 V6N      -0.459000
     25 H1         -35.2500    -5.2020   -10.3220 ha         1 V6N       0.209000
     26 H2         -35.7060     0.5170   -10.8190 h1         1 V6N       0.063200
     27 H3         -36.3610    -0.6050    -9.6240 h1         1 V6N       0.063200
     28 H4         -34.1220    -0.8230    -8.5760 h1         1 V6N       0.041700
     29 H5         -33.4580     0.3630    -9.7050 h1         1 V6N       0.041700
     30 H7         -32.9190     1.4180    -7.3180 h1         1 V6N       0.041950
     31 H8         -34.2310    -5.3960   -14.0070 ha         1 V6N       0.138000
     32 H9         -33.8250     2.3140    -5.2280 h1         1 V6N       0.052700
     33 H10        -35.4870     1.9100    -5.7270 h1         1 V6N       0.052700
     34 H11        -35.3830     4.4440    -8.3000 h1         1 V6N       0.052700
     35 H12        -36.4270     3.1980    -7.5750 h1         1 V6N       0.052700
     36 H13        -35.5680     2.3930    -9.7120 h1         1 V6N       0.041950
     37 H14        -33.8950     2.7360    -9.2360 h1         1 V6N       0.041950
     38 H15        -34.2330    -9.5880   -11.2300 ha         1 V6N       0.120000
     39 H16        -34.7540    -7.4040   -10.2200 ha         1 V6N       0.118000
     40 H17        -33.4770   -10.7970   -14.0270 h4         1 V6N       0.231000
     41 H18        -34.6240    -1.2020   -11.9000 hn         1 V6N       0.324500
     42 H20        -33.2090    -9.5480   -16.1820 hn         1 V6N       0.375000
     43 H6         -33.9560     0.1910    -6.5620 h1         1 V6N       0.041950
@<TRIPOS>BOND
     1     1     2 1   
     2     1     9 ar  
     3     1    16 ar  
     4     2     3 2   
     5     2    25 1   
     6     3     4 1   
     7     3     5 1   
     8     4    20 3   
     9     5    18 1   
    10     5    23 2   
    11     6     7 1   
    12     6    18 1   
    13     6    26 1   
    14     6    27 1   
    15     7    19 1   
    16     7    28 1   
    17     7    29 1   
    18     8    10 1   
    19     8    19 1   
    20     8    30 1   
    21     8    43 1   
    22     9    13 ar  
    23     9    31 1   
    24    10    24 1   
    25    10    32 1   
    26    10    33 1   
    27    11    12 1   
    28    11    24 1   
    29    11    34 1   
    30    11    35 1   
    31    12    19 1   
    32    12    36 1   
    33    12    37 1   
    34    13    14 ar  
    35    13    22 2   
    36    14    15 ar  
    37    14    17 2   
    38    15    16 ar  
    39    15    38 1   
    40    16    39 1   
    41    17    21 1   
    42    17    40 1   
    43    18    41 1   
    44    21    22 1   
    45    21    42 1   
@<TRIPOS>SUBSTRUCTURE
     1 V6N         1 TEMP              0 ****  ****    0 ROOT
