@<TRIPOS>MOLECULE
V6N
   43    45     1     0     0
SMALL
No Charge or Current Charge


@<TRIPOS>ATOM
      1 C1         -34.5250    -6.3590   -12.0120 ca         1 V6N      -0.088800
      2 C10        -34.9470    -5.1240   -11.2860 ce         1 V6N      -0.014200
      3 C11        -34.7170    -3.8060   -11.5870 cf         1 V6N      -0.117900
      4 C12        -33.9530    -3.4230   -12.7330 ch         1 V6N       0.286700
      5 C13        -35.2390    -2.7180   -10.6930 c          1 V6N       0.616300
      6 C16        -35.3680    -0.2250   -10.2840 c3         1 V6N       0.106000
      7 C17        -34.5200    -0.0150    -9.0020 c3         1 V6N       0.144800
      8 C19        -34.2090     1.1650    -6.8450 c6         1 V6N       0.128800
      9 C2         -34.6520    -6.4660   -13.4200 ca         1 V6N      -0.022000
     10 C20        -34.6480     2.3720    -5.9630 c6         1 V6N       0.152600
     11 C22        -35.1970     3.6560    -7.9260 c6         1 V6N       0.152600
     12 C23        -34.7740     2.4740    -8.8510 c6         1 V6N       0.128800
     13 C3         -34.2550    -7.6540   -14.0550 ca         1 V6N      -0.084000
     14 C4         -33.7580    -8.6940   -13.3110 ca         1 V6N      -0.131000
     15 C5         -33.6260    -8.6410   -11.9190 ca         1 V6N      -0.056000
     16 C6         -34.0210    -7.4550   -11.2690 ca         1 V6N      -0.112000
     17 C7         -33.4560    -9.7310   -14.2320 cc         1 V6N      -0.192100
     18 N15        -34.9620    -1.4120   -11.0510 ns         1 V6N      -0.501900
     19 N18        -34.9180     1.1480    -8.1640 n3         1 V6N      -0.719600
     20 N24        -33.3400    -3.0660   -13.6590 n1         1 V6N      -0.461000
     21 N8         -33.7990    -9.2350   -15.4880 na         1 V6N       0.010500
     22 N9         -34.3080    -7.9300   -15.4230 nc         1 V6N      -0.265400
     23 O14        -35.8900    -2.9630    -9.6860 o          1 V6N      -0.606100
     24 O21        -34.4580     3.6140    -6.6820 os         1 V6N      -0.459000
     25 H1         -35.4980    -5.3460   -10.3700 ha         1 V6N       0.209000
     26 H2         -35.2720     0.6510   -10.9370 h1         1 V6N       0.063200
     27 H3         -36.4250    -0.3230   -10.0060 h1         1 V6N       0.063200
     28 H4         -34.5960    -0.9310    -8.4010 h1         1 V6N       0.041700
     29 H5         -33.4660     0.0830    -9.2980 h1         1 V6N       0.041700
     30 H7         -33.1210     1.2200    -6.9980 h1         1 V6N       0.041950
     31 H8         -35.0640    -5.6510   -14.0100 ha         1 V6N       0.138000
     32 H9         -34.0550     2.3950    -5.0380 h1         1 V6N       0.052700
     33 H10        -35.7080     2.2690    -5.6880 h1         1 V6N       0.052700
     34 H11        -35.0030     4.6130    -8.4290 h1         1 V6N       0.052700
     35 H12        -36.2740     3.5960    -7.7100 h1         1 V6N       0.052700
     36 H13        -35.3940     2.5130    -9.7570 h1         1 V6N       0.041950
     37 H14        -33.7310     2.6300    -9.1650 h1         1 V6N       0.041950
     38 H15        -33.2330    -9.4860   -11.3580 ha         1 V6N       0.120000
     39 H16        -33.9300    -7.3850   -10.1870 ha         1 V6N       0.118000
     40 H17        -33.0480   -10.7300   -14.1100 h4         1 V6N       0.231000
     41 H18        -34.4230    -1.2730   -11.8990 hn         1 V6N       0.324500
     42 H20        -33.7140    -9.7190   -16.3790 hn         1 V6N       0.375000
     43 H6         -34.4090     0.2350    -6.2930 h1         1 V6N       0.041950
@<TRIPOS>BOND
     1     1     2 1   
     2     1     9 ar  
     3     1    16 ar  
     4     2     3 2   
     5     2    25 1   
     6     3     4 1   
     7     3     5 1   
     8     4    20 3   
     9     5    18 1   
    10     5    23 2   
    11     6     7 1   
    12     6    18 1   
    13     6    26 1   
    14     6    27 1   
    15     7    19 1   
    16     7    28 1   
    17     7    29 1   
    18     8    10 1   
    19     8    19 1   
    20     8    30 1   
    21     8    43 1   
    22     9    13 ar  
    23     9    31 1   
    24    10    24 1   
    25    10    32 1   
    26    10    33 1   
    27    11    12 1   
    28    11    24 1   
    29    11    34 1   
    30    11    35 1   
    31    12    19 1   
    32    12    36 1   
    33    12    37 1   
    34    13    14 ar  
    35    13    22 2   
    36    14    15 ar  
    37    14    17 2   
    38    15    16 ar  
    39    15    38 1   
    40    16    39 1   
    41    17    21 1   
    42    17    40 1   
    43    18    41 1   
    44    21    22 1   
    45    21    42 1   
@<TRIPOS>SUBSTRUCTURE
     1 V6N         1 TEMP              0 ****  ****    0 ROOT
