@<TRIPOS>MOLECULE
V6P
   24    25     1     0     0
SMALL
No Charge or Current Charge


@<TRIPOS>ATOM
      1 C01         36.0520   -39.2510    -2.1990 ca         1 V6P      -0.284000
      2 C02         35.9470   -39.4250    -0.8060 ca         1 V6P       0.179100
      3 C04         37.1380   -38.5440    -2.7310 ca         1 V6P       0.173100
      4 C05         33.6040   -40.0190    -0.7110 ca         1 V6P       0.095100
      5 C07         38.0290   -38.2020    -0.4930 ca         1 V6P      -0.044000
      6 C08         36.9400   -38.9100     0.0430 ca         1 V6P      -0.179000
      7 C09         38.1240   -38.0180    -1.8830 ca         1 V6P      -0.180000
      8 C10         32.7840   -41.1600    -0.7030 ca         1 V6P      -0.117500
      9 C11         33.0820   -38.7830    -1.1460 ca         1 V6P      -0.117500
     10 C12         31.7510   -38.7000    -1.5910 ca         1 V6P      -0.103000
     11 C13         31.4520   -41.0760    -1.1480 ca         1 V6P      -0.103000
     12 C14         30.9370   -39.8460    -1.5940 ca         1 V6P      -0.111000
     13 O03         34.8990   -40.1270    -0.2560 os         1 V6P      -0.255200
     14 O06         37.2410   -38.3700    -4.0760 oh         1 V6P      -0.533100
     15 H1          35.2930   -39.6690    -2.8550 ha         1 V6P       0.125000
     16 H2          38.7960   -37.7980     0.1660 ha         1 V6P       0.117000
     17 H3          36.8620   -39.0580     1.1170 ha         1 V6P       0.131000
     18 H4          38.9640   -37.4720    -2.3020 ha         1 V6P       0.131000
     19 H5          33.1830   -42.1100    -0.3560 ha         1 V6P       0.129500
     20 H6          33.7030   -37.8910    -1.1360 ha         1 V6P       0.129500
     21 H7          31.3490   -37.7470    -1.9300 ha         1 V6P       0.117000
     22 H8          30.8210   -41.9620    -1.1460 ha         1 V6P       0.117000
     23 H9          29.9070   -39.7810    -1.9370 ha         1 V6P       0.116000
     24 H10         36.4710   -38.8050    -4.4980 ho         1 V6P       0.466000
@<TRIPOS>BOND
     1     1     2 ar  
     2     1     3 ar  
     3     1    15 1   
     4     2     6 ar  
     5     2    13 1   
     6     3     7 ar  
     7     3    14 1   
     8     4     8 ar  
     9     4     9 ar  
    10     4    13 1   
    11     5     6 ar  
    12     5     7 ar  
    13     5    16 1   
    14     6    17 1   
    15     7    18 1   
    16     8    11 ar  
    17     8    19 1   
    18     9    10 ar  
    19     9    20 1   
    20    10    12 ar  
    21    10    21 1   
    22    11    12 ar  
    23    11    22 1   
    24    12    23 1   
    25    14    24 1   
@<TRIPOS>SUBSTRUCTURE
     1 V6P         1 TEMP              0 ****  ****    0 ROOT
