@<TRIPOS>MOLECULE
V6P
   24    25     1     0     0
SMALL
bcc


@<TRIPOS>ATOM
      1 C01         35.8410   -39.0720    -2.0260 ca         1 V6P      -0.302000
      2 C02         35.8290   -39.1040    -0.6360 ca         1 V6P       0.179100
      3 C04         37.0250   -38.7570    -2.6930 ca         1 V6P       0.173100
      4 C05         33.5240   -39.6020    -0.5610 ca         1 V6P       0.095100
      5 C07         38.1460   -38.5200    -0.5910 ca         1 V6P      -0.062000
      6 C08         36.9810   -38.8290     0.0940 ca         1 V6P      -0.197000
      7 C09         38.1860   -38.4790    -1.9760 ca         1 V6P      -0.198000
      8 C10         33.1280   -40.8930    -0.8760 ca         1 V6P      -0.135500
      9 C11         32.7150   -38.5140    -0.8550 ca         1 V6P      -0.135500
     10 C12         31.4910   -38.7270    -1.4740 ca         1 V6P      -0.121000
     11 C13         31.9000   -41.0950    -1.4930 ca         1 V6P      -0.121000
     12 C14         31.0830   -40.0140    -1.7960 ca         1 V6P      -0.129000
     13 O03         34.7170   -39.4040     0.0880 os         1 V6P      -0.255200
     14 O06         37.0920   -38.7090    -4.0360 oh         1 V6P      -0.494100
     15 H1          34.9460   -39.2880    -2.5980 ha         1 V6P       0.143000
     16 H2          39.0460   -38.3040    -0.0300 ha         1 V6P       0.135000
     17 H3          36.9600   -38.8560     1.1750 ha         1 V6P       0.149000
     18 H4          39.1010   -38.2340    -2.5000 ha         1 V6P       0.149000
     19 H5          33.7720   -41.7310    -0.6370 ha         1 V6P       0.147500
     20 H6          33.0390   -37.5130    -0.5990 ha         1 V6P       0.147500
     21 H7          30.8560   -37.8820    -1.7050 ha         1 V6P       0.135000
     22 H8          31.5850   -42.1010    -1.7380 ha         1 V6P       0.135000
     23 H9          30.1280   -40.1750    -2.2790 ha         1 V6P       0.134000
     24 H10         36.2370   -38.9230    -4.4290 ho         1 V6P       0.427000
@<TRIPOS>BOND
     1     1     2 ar  
     2     1     3 ar  
     3     1    15 1   
     4     2     6 ar  
     5     2    13 1   
     6     3     7 ar  
     7     3    14 1   
     8     4     8 ar  
     9     4     9 ar  
    10     4    13 1   
    11     5     6 ar  
    12     5     7 ar  
    13     5    16 1   
    14     6    17 1   
    15     7    18 1   
    16     8    11 ar  
    17     8    19 1   
    18     9    10 ar  
    19     9    20 1   
    20    10    12 ar  
    21    10    21 1   
    22    11    12 ar  
    23    11    22 1   
    24    12    23 1   
    25    14    24 1   
@<TRIPOS>SUBSTRUCTURE
     1 V6P         1 TEMP              0 ****  ****    0 ROOT
