@<TRIPOS>MOLECULE
V6Q
   21    21     1     0     0
SMALL
No Charge or Current Charge


@<TRIPOS>ATOM
      1 C1         -33.5100    -2.8880   -12.1380 ca         1 V6Q      -0.150000
      2 C2         -33.9040    -3.4730   -13.3520 ca         1 V6Q      -0.077000
      3 C3         -34.1130    -4.8660   -13.4420 ca         1 V6Q      -0.115300
      4 C4         -33.9280    -5.6730   -12.2940 ca         1 V6Q       0.161100
      5 C5         -33.5300    -5.0740   -11.0750 ca         1 V6Q      -0.200000
      6 C6         -33.3210    -3.6870   -11.0010 ca         1 V6Q      -0.070000
      7 C8         -34.5510    -5.4630   -14.7770 c3         1 V6Q       0.206100
      8 C9         -33.9820    -7.9290   -11.2770 c3         1 V6Q       0.148900
      9 N10        -33.4270    -5.5520   -15.7290 n8         1 V6Q      -0.989200
     10 O7         -34.1480    -7.0360   -12.3920 os         1 V6Q      -0.338100
     11 H1         -33.3500    -1.8130   -12.0800 ha         1 V6Q       0.114000
     12 H2         -34.0500    -2.8430   -14.2270 ha         1 V6Q       0.108000
     13 H3         -33.3800    -5.6650   -10.1770 ha         1 V6Q       0.116000
     14 H4         -33.0160    -3.2310   -10.0610 ha         1 V6Q       0.110000
     15 H5         -35.3320    -4.8260   -15.2170 h1         1 V6Q       0.037200
     16 H6         -34.9800    -6.4640   -14.6390 h1         1 V6Q       0.037200
     17 H7         -34.2060    -8.9600   -11.5800 h1         1 V6Q       0.040700
     18 H8         -32.9490    -7.9020   -10.9050 h1         1 V6Q       0.040700
     19 H9         -34.6600    -7.6610   -10.4570 h1         1 V6Q       0.040700
     20 H10        -33.7870    -5.8620   -16.6390 hn         1 V6Q       0.389500
     21 H11        -33.0770    -4.6050   -15.9120 hn         1 V6Q       0.389500
@<TRIPOS>BOND
     1     1     2 ar  
     2     1     6 ar  
     3     1    11 1   
     4     2     3 ar  
     5     2    12 1   
     6     3     4 ar  
     7     3     7 1   
     8     4     5 ar  
     9     4    10 1   
    10     5     6 ar  
    11     5    13 1   
    12     6    14 1   
    13     7     9 1   
    14     7    15 1   
    15     7    16 1   
    16     8    10 1   
    17     8    17 1   
    18     8    18 1   
    19     8    19 1   
    20     9    20 1   
    21     9    21 1   
@<TRIPOS>SUBSTRUCTURE
     1 V6Q         1 TEMP              0 ****  ****    0 ROOT
