@<TRIPOS>MOLECULE
V6Q
   21    21     1     0     0
SMALL
abcg2


@<TRIPOS>ATOM
      1 C1         -33.5790    -2.8660   -12.0780 ca         1 V6Q      -0.150000
      2 C2         -34.0030    -3.4250   -13.2820 ca         1 V6Q      -0.077000
      3 C3         -34.1790    -4.7960   -13.4320 ca         1 V6Q      -0.115300
      4 C4         -33.9250    -5.6280   -12.3250 ca         1 V6Q       0.161100
      5 C5         -33.5060    -5.0780   -11.1130 ca         1 V6Q      -0.200000
      6 C6         -33.3320    -3.7000   -10.9980 ca         1 V6Q      -0.070000
      7 C8         -34.6060    -5.3660   -14.7590 c3         1 V6Q       0.206100
      8 C9         -33.9100    -7.8440   -11.4160 c3         1 V6Q       0.148900
      9 N10        -33.4410    -5.8610   -15.5180 n8         1 V6Q      -0.989200
     10 O7         -34.1200    -6.9610   -12.5160 os         1 V6Q      -0.338100
     11 H1         -33.4490    -1.7950   -11.9890 ha         1 V6Q       0.114000
     12 H2         -34.2050    -2.7830   -14.1320 ha         1 V6Q       0.108000
     13 H3         -33.3160    -5.7100   -10.2590 ha         1 V6Q       0.116000
     14 H4         -33.0050    -3.2880   -10.0510 ha         1 V6Q       0.110000
     15 H5         -35.1640    -4.5940   -15.3020 h1         1 V6Q       0.037200
     16 H6         -35.2800    -6.2090   -14.6020 h1         1 V6Q       0.037200
     17 H7         -34.1330    -8.8410   -11.7890 h1         1 V6Q       0.040700
     18 H8         -32.8740    -7.8040   -11.0720 h1         1 V6Q       0.040700
     19 H9         -34.5790    -7.6050   -10.5860 h1         1 V6Q       0.040700
     20 H10        -33.7570    -6.2430   -16.4040 hn         1 V6Q       0.389500
     21 H11        -32.8380    -5.0760   -15.7480 hn         1 V6Q       0.389500
@<TRIPOS>BOND
     1     1     2 ar  
     2     1     6 ar  
     3     1    11 1   
     4     2     3 ar  
     5     2    12 1   
     6     3     4 ar  
     7     3     7 1   
     8     4     5 ar  
     9     4    10 1   
    10     5     6 ar  
    11     5    13 1   
    12     6    14 1   
    13     7     9 1   
    14     7    15 1   
    15     7    16 1   
    16     8    10 1   
    17     8    17 1   
    18     8    18 1   
    19     8    19 1   
    20     9    20 1   
    21     9    21 1   
@<TRIPOS>SUBSTRUCTURE
     1 V6Q         1 TEMP              0 ****  ****    0 ROOT
