@<TRIPOS>MOLECULE
V6R
   33    33     1     0     0
SMALL
abcg2


@<TRIPOS>ATOM
      1 N1          30.4550    15.1850    43.2790 n8         1 V6R      -0.993200
      2 C7          26.7850    15.9830    38.7150 ca         1 V6R      -0.081000
      3 C8          26.9920    15.2360    37.5590 ca         1 V6R      -0.131000
      4 C9          28.2860    14.9160    37.1620 ca         1 V6R      -0.080000
      5 C1          30.4420    17.1050    44.8250 c3         1 V6R      -0.068400
      6 C5          27.6310    17.2420    40.7450 c3         1 V6R       0.146300
      7 C6          27.8530    16.4300    39.4920 ca         1 V6R      -0.149300
      8 C4          27.4180    15.2750    42.2080 c3         1 V6R       0.092300
      9 C3          29.0710    17.0910    42.7040 c          1 V6R       0.614100
     10 C2          29.6200    16.2500    43.8650 c3         1 V6R       0.099500
     11 C11         29.1280    16.0880    39.0590 ca         1 V6R       0.184000
     12 C10         29.3710    15.3450    37.9200 ca         1 V6R      -0.152000
     13 N           28.0770    16.5490    41.9540 n          1 V6R      -0.420800
     14 O           29.5450    18.2000    42.4530 o          1 V6R      -0.588100
     15 C           30.9170    16.3290    46.0530 c3         1 V6R      -0.093100
     16 H1          30.7910    14.5750    44.0180 hn         1 V6R       0.398500
     17 H2          29.9080    14.5940    42.6630 hn         1 V6R       0.398500
     18 H4          25.7780    16.2270    39.0290 ha         1 V6R       0.114000
     19 H5          26.1450    14.9040    36.9730 ha         1 V6R       0.118000
     20 H6          28.4560    14.3340    36.2660 ha         1 V6R       0.118000
     21 H7          31.2940    17.5230    44.2870 hc         1 V6R       0.064200
     22 H8          29.8240    17.9470    45.1440 hc         1 V6R       0.064200
     23 H9          28.1730    18.1830    40.6970 h1         1 V6R       0.072200
     24 H10         26.5650    17.4610    40.8360 h1         1 V6R       0.072200
     25 H11         27.5850    14.9400    43.2250 h1         1 V6R       0.038033
     26 H12         26.3430    15.4000    42.0620 h1         1 V6R       0.038033
     27 H13         27.7660    14.5030    41.5170 h1         1 V6R       0.038033
     28 H14         28.7750    15.8460    44.4370 h1         1 V6R       0.021700
     29 H15         30.3900    15.1150    37.6380 ha         1 V6R       0.135000
     30 H16         31.4400    16.9910    46.7450 hc         1 V6R       0.032033
     31 H17         30.0740    15.8830    46.5870 hc         1 V6R       0.032033
     32 H18         31.6090    15.5270    45.7870 hc         1 V6R       0.032033
     33 F           30.1950    16.5030    39.7910 f          1 V6R      -0.167000
@<TRIPOS>BOND
     1     1    10 1   
     2     1    16 1   
     3     1    17 1   
     4     2     3 ar  
     5     2     7 ar  
     6     2    18 1   
     7     3     4 ar  
     8     3    19 1   
     9     4    12 ar  
    10     4    20 1   
    11     5    10 1   
    12     5    15 1   
    13     5    21 1   
    14     5    22 1   
    15     6     7 1   
    16     6    13 1   
    17     6    23 1   
    18     6    24 1   
    19     7    11 ar  
    20     8    13 1   
    21     8    25 1   
    22     8    26 1   
    23     8    27 1   
    24     9    10 1   
    25     9    13 1   
    26     9    14 2   
    27    10    28 1   
    28    11    12 ar  
    29    11    33 1   
    30    12    29 1   
    31    15    30 1   
    32    15    31 1   
    33    15    32 1   
@<TRIPOS>SUBSTRUCTURE
     1 V6R         1 TEMP              0 ****  ****    0 ROOT
