@<TRIPOS>MOLECULE
V6R
   33    33     1     0     0
SMALL
No Charge or Current Charge


@<TRIPOS>ATOM
      1 N1          30.6110    15.0210    43.4960 n8         1 V6R      -0.993200
      2 C7          26.7160    15.8720    38.7660 ca         1 V6R      -0.081000
      3 C8          26.8450    15.1270    37.5800 ca         1 V6R      -0.131000
      4 C9          28.1060    14.9630    36.9810 ca         1 V6R      -0.080000
      5 C1          30.5150    17.0570    44.9360 c3         1 V6R      -0.068400
      6 C5          27.7080    17.2620    40.6520 c3         1 V6R       0.146300
      7 C6          27.8510    16.4580    39.3650 ca         1 V6R      -0.149300
      8 C4          27.4610    15.2990    42.2230 c3         1 V6R       0.092300
      9 C3          29.2130    17.0720    42.6790 c          1 V6R       0.614100
     10 C2          29.7560    16.1940    43.8880 c3         1 V6R       0.099500
     11 C11         29.1120    16.2900    38.7560 ca         1 V6R       0.184000
     12 C10         29.2390    15.5470    37.5710 ca         1 V6R      -0.152000
     13 N           28.1900    16.5340    41.8520 n          1 V6R      -0.420800
     14 O           29.6790    18.1840    42.4440 o          1 V6R      -0.588100
     15 C           30.8210    16.3300    46.2650 c3         1 V6R      -0.093100
     16 H1          30.8410    14.4760    44.3350 hn         1 V6R       0.398500
     17 H2          30.0620    14.3700    42.9220 hn         1 V6R       0.398500
     18 H4          25.7340    15.9900    39.2200 ha         1 V6R       0.114000
     19 H5          25.9660    14.6760    37.1250 ha         1 V6R       0.118000
     20 H6          28.2030    14.3870    36.0630 ha         1 V6R       0.118000
     21 H7          31.4510    17.4270    44.5000 hc         1 V6R       0.064200
     22 H8          29.9080    17.9410    45.1680 hc         1 V6R       0.064200
     23 H9          28.2420    18.2130    40.5290 h1         1 V6R       0.072200
     24 H10         26.6510    17.5200    40.8070 h1         1 V6R       0.072200
     25 H11         27.0550    15.3930    43.2380 h1         1 V6R       0.038033
     26 H12         26.6240    15.1260    41.5340 h1         1 V6R       0.038033
     27 H13         28.1360    14.4360    42.1730 h1         1 V6R       0.038033
     28 H14         28.8760    15.7870    44.4010 h1         1 V6R       0.021700
     29 H15         30.2170    15.4250    37.1130 ha         1 V6R       0.135000
     30 H16         31.2880    17.0220    46.9760 hc         1 V6R       0.032033
     31 H17         29.8990    15.9470    46.7200 hc         1 V6R       0.032033
     32 H18         31.5090    15.4900    46.1120 hc         1 V6R       0.032033
     33 F           30.2150    16.8460    39.3050 f          1 V6R      -0.167000
@<TRIPOS>BOND
     1     1    10 1   
     2     1    16 1   
     3     1    17 1   
     4     2     3 ar  
     5     2     7 ar  
     6     2    18 1   
     7     3     4 ar  
     8     3    19 1   
     9     4    12 ar  
    10     4    20 1   
    11     5    10 1   
    12     5    15 1   
    13     5    21 1   
    14     5    22 1   
    15     6     7 1   
    16     6    13 1   
    17     6    23 1   
    18     6    24 1   
    19     7    11 ar  
    20     8    13 1   
    21     8    25 1   
    22     8    26 1   
    23     8    27 1   
    24     9    10 1   
    25     9    13 1   
    26     9    14 2   
    27    10    28 1   
    28    11    12 ar  
    29    11    33 1   
    30    12    29 1   
    31    15    30 1   
    32    15    31 1   
    33    15    32 1   
@<TRIPOS>SUBSTRUCTURE
     1 V6R         1 TEMP              0 ****  ****    0 ROOT
