@<TRIPOS>MOLECULE
V6S
   26    27     1     0     0
SMALL
No Charge or Current Charge


@<TRIPOS>ATOM
      1 C01         29.9770   -40.2930    -1.1260 ca         1 V6S      -0.164000
      2 C02         31.1090   -41.1240    -1.0780 ca         1 V6S      -0.072000
      3 C03         32.3750   -40.5660    -0.8320 ca         1 V6S      -0.158000
      4 C04         32.5050   -39.1780    -0.6260 ca         1 V6S       0.169100
      5 C05         31.3730   -38.3500    -0.6890 ca         1 V6S      -0.219000
      6 C06         30.1100   -38.9090    -0.9340 ca         1 V6S       0.142100
      7 C08         34.7160   -39.2040     0.3580 ca         1 V6S       0.091100
      8 C09         36.0540   -39.0760    -0.0370 ca         1 V6S      -0.188500
      9 C10         37.0780   -39.6670     0.7260 ca         1 V6S      -0.061000
     10 C11         36.7740   -40.3890     1.9040 ca         1 V6S      -0.154600
     11 C12         35.4190   -40.4990     2.3000 ca         1 V6S      -0.061000
     12 C13         34.3990   -39.9070     1.5340 ca         1 V6S      -0.188500
     13 C14         37.8780   -41.0280     2.7300 c          1 V6S       0.716600
     14 O07         33.7360   -38.6030    -0.4000 os         1 V6S      -0.277200
     15 O15         39.0350   -40.9070     2.3540 o          1 V6S      -0.721500
     16 O16         29.0080   -38.1110    -0.9900 oh         1 V6S      -0.544100
     17 O17         37.5710   -41.6410     3.7430 o          1 V6S      -0.721500
     18 H1          28.9960   -40.7220    -1.3170 ha         1 V6S       0.119000
     19 H2          31.0060   -42.1960    -1.2340 ha         1 V6S       0.108000
     20 H3          33.2510   -41.2080    -0.8050 ha         1 V6S       0.133000
     21 H4          31.4870   -37.2800    -0.5410 ha         1 V6S       0.129000
     22 H5          36.3020   -38.5220    -0.9390 ha         1 V6S       0.100500
     23 H6          38.1100   -39.5590     0.3970 ha         1 V6S       0.128500
     24 H7          35.1520   -41.0410     3.2040 ha         1 V6S       0.128500
     25 H8          33.3650   -39.9930     1.8610 ha         1 V6S       0.100500
     26 H9          29.2890   -37.1840    -0.8350 ho         1 V6S       0.465000
@<TRIPOS>BOND
     1     1     2 ar  
     2     1     6 ar  
     3     1    18 1   
     4     2     3 ar  
     5     2    19 1   
     6     3     4 ar  
     7     3    20 1   
     8     4     5 ar  
     9     4    14 1   
    10     5     6 ar  
    11     5    21 1   
    12     6    16 1   
    13     7     8 ar  
    14     7    12 ar  
    15     7    14 1   
    16     8     9 ar  
    17     8    22 1   
    18     9    10 ar  
    19     9    23 1   
    20    10    11 ar  
    21    10    13 1   
    22    11    12 ar  
    23    11    24 1   
    24    12    25 1   
    25    13    15 1   
    26    13    17 1   
    27    16    26 1   
@<TRIPOS>SUBSTRUCTURE
     1 V6S         1 TEMP              0 ****  ****    0 ROOT
