@<TRIPOS>MOLECULE
V6S
   26    27     1     0     0
SMALL
abcg2


@<TRIPOS>ATOM
      1 C01         29.9420   -40.1550    -0.9250 ca         1 V6S      -0.164000
      2 C02         30.8600   -41.0760    -1.4010 ca         1 V6S      -0.072000
      3 C03         32.2180   -40.7870    -1.4420 ca         1 V6S      -0.158000
      4 C04         32.6380   -39.5440    -0.9960 ca         1 V6S       0.169100
      5 C05         31.7410   -38.6030    -0.5120 ca         1 V6S      -0.219000
      6 C06         30.3830   -38.9100    -0.4780 ca         1 V6S       0.142100
      7 C08         34.7870   -39.5380    -0.0270 ca         1 V6S       0.091100
      8 C09         36.1360   -39.2360    -0.1910 ca         1 V6S      -0.188500
      9 C10         37.0340   -39.5370     0.8170 ca         1 V6S      -0.061000
     10 C11         36.6230   -40.1410     2.0050 ca         1 V6S      -0.154600
     11 C12         35.2700   -40.4300     2.1450 ca         1 V6S      -0.061000
     12 C13         34.3480   -40.1350     1.1490 ca         1 V6S      -0.188500
     13 C14         37.6210   -40.4760     3.1060 c          1 V6S       0.716600
     14 O07         33.9660   -39.2100    -1.0650 os         1 V6S      -0.277200
     15 O15         38.8100   -40.1690     2.8910 o          1 V6S      -0.721500
     16 O16         29.4590   -38.0420    -0.0260 oh         1 V6S      -0.544100
     17 O17         37.1610   -41.0290     4.1240 o          1 V6S      -0.721500
     18 H1          28.8860   -40.3920    -0.8990 ha         1 V6S       0.119000
     19 H2          30.5100   -42.0400    -1.7480 ha         1 V6S       0.108000
     20 H3          32.9330   -41.5070    -1.8170 ha         1 V6S       0.133000
     21 H4          32.1020   -37.6390    -0.1710 ha         1 V6S       0.129000
     22 H5          36.4720   -38.7680    -1.1090 ha         1 V6S       0.100500
     23 H6          38.0800   -39.2980     0.6780 ha         1 V6S       0.128500
     24 H7          34.9200   -40.8980     3.0560 ha         1 V6S       0.128500
     25 H8          33.3040   -40.3760     1.3000 ha         1 V6S       0.100500
     26 H9          29.8720   -37.2210     0.2660 ho         1 V6S       0.465000
@<TRIPOS>BOND
     1     1     2 ar  
     2     1     6 ar  
     3     1    18 1   
     4     2     3 ar  
     5     2    19 1   
     6     3     4 ar  
     7     3    20 1   
     8     4     5 ar  
     9     4    14 1   
    10     5     6 ar  
    11     5    21 1   
    12     6    16 1   
    13     7     8 ar  
    14     7    12 ar  
    15     7    14 1   
    16     8     9 ar  
    17     8    22 1   
    18     9    10 ar  
    19     9    23 1   
    20    10    11 ar  
    21    10    13 1   
    22    11    12 ar  
    23    11    24 1   
    24    12    25 1   
    25    13    15 1   
    26    13    17 1   
    27    16    26 1   
@<TRIPOS>SUBSTRUCTURE
     1 V6S         1 TEMP              0 ****  ****    0 ROOT
