@<TRIPOS>MOLECULE
V6T
   55    57     1     0     0
SMALL
abcg2


@<TRIPOS>ATOM
      1 C10          9.3890    -2.7320    -7.0900 c3         1 V6T      -0.123400
      2 C01         11.8670   -12.1470    -6.2620 c3         1 V6T       0.150400
      3 C03         10.5720   -10.3570    -5.4110 ca         1 V6T       0.085600
      4 C04         11.0520    -9.4540    -6.3480 ca         1 V6T      -0.138000
      5 C05         10.6140    -8.1240    -6.3530 ca         1 V6T      -0.088800
      6 C07         10.9180    -5.9440    -7.6010 cc         1 V6T      -0.070600
      7 C09         10.1470    -3.9390    -7.4850 cd         1 V6T       0.436900
      8 C12         11.3340    -2.8260    -9.3870 ca         1 V6T       0.129600
      9 C13         10.9290    -2.8230   -10.7110 ca         1 V6T      -0.084500
     10 C14         11.2260    -1.7440   -11.5320 ca         1 V6T      -0.084000
     11 C15         11.9220    -0.6640   -11.0170 ca         1 V6T       0.103000
     12 C20         12.3360    -0.6650    -9.6910 ca         1 V6T      -0.084000
     13 C21         12.0500    -1.7490    -8.8820 ca         1 V6T      -0.084500
     14 C22         11.5670    -5.1980    -8.6980 c          1 V6T       0.551200
     15 C24          9.6800    -7.7010    -5.4000 ca         1 V6T      -0.138000
     16 C25          9.2010    -8.6020    -4.4660 ca         1 V6T       0.085600
     17 C27          7.8020    -6.9970    -3.4130 c3         1 V6T       0.150400
     18 C28          9.6370    -9.9340    -4.4610 ca         1 V6T       0.133100
     19 N08         10.0620    -5.0900    -6.9160 nc         1 V6T      -0.552300
     20 N11         11.0280    -3.9250    -8.5580 n          1 V6T      -0.313500
     21 N16         12.2430     0.5190   -11.8550 n4         1 V6T      -0.538000
     22 O23         12.3710    -5.5410    -9.5360 o          1 V6T      -0.501000
     23 O26          8.3030    -8.3160    -3.5020 os         1 V6T      -0.338100
     24 O29          9.1860   -10.8260    -3.5680 oh         1 V6T      -0.499100
     25 H1           8.6940    -2.9870    -6.2940 hc         1 V6T       0.063700
     26 H2          10.0520    -1.9440    -6.7310 hc         1 V6T       0.063700
     27 H3           8.8290    -2.3280    -7.9340 hc         1 V6T       0.063700
     28 H4          12.0190   -13.1960    -6.0200 h1         1 V6T       0.044367
     29 H5          11.4950   -12.0730    -7.2880 h1         1 V6T       0.044367
     30 H6          12.8260   -11.6270    -6.1970 h1         1 V6T       0.044367
     31 H7          11.7740    -9.7650    -7.0920 ha         1 V6T       0.136500
     32 H8          11.8760    -7.7130    -8.0390 ha         1 V6T       0.194000
     33 H11         10.3660    -3.6550   -11.1120 ha         1 V6T       0.158500
     34 H12         10.8890    -1.7790   -12.5560 ha         1 V6T       0.133500
     35 H13         14.1350     0.8790   -10.9430 hx         1 V6T       0.096033
     36 H14         14.1670    -0.2070   -12.3540 hx         1 V6T       0.096033
     37 H15         13.9430     1.5470   -12.5740 hx         1 V6T       0.096033
     38 H16         10.6460     0.3030   -13.2400 hx         1 V6T       0.096033
     39 H17         12.0050     1.3000   -13.7860 hx         1 V6T       0.096033
     40 H18         12.1830    -0.4620   -13.7390 hx         1 V6T       0.096033
     41 H19         12.0360     1.9260   -10.2670 hx         1 V6T       0.096033
     42 H20         11.8510     2.5930   -11.8980 hx         1 V6T       0.096033
     43 H21         10.5500     1.6010   -11.1910 hx         1 V6T       0.096033
     44 H22         12.8890     0.1600    -9.2620 ha         1 V6T       0.133500
     45 H23         12.3880    -1.7510    -7.8540 ha         1 V6T       0.158500
     46 H24          9.3450    -6.6750    -5.4040 ha         1 V6T       0.136500
     47 H25          7.1050    -6.9870    -2.5790 h1         1 V6T       0.044367
     48 H26          8.5980    -6.2750    -3.2180 h1         1 V6T       0.044367
     49 H27          7.2720    -6.7040    -4.3220 h1         1 V6T       0.044367
     50 H28          8.5540   -10.4040    -2.9720 ho         1 V6T       0.485000
     51 C06         11.1620    -7.2500    -7.3650 cf         1 V6T       0.040800
     52 C17         13.7310     0.6950   -11.9330 c3         1 V6T       0.083567
     53 C18         11.7280     0.3960   -13.2520 c3         1 V6T       0.083567
     54 C19         11.6240     1.7470   -11.2550 c3         1 V6T       0.083567
     55 O02         10.9320   -11.6510    -5.3250 os         1 V6T      -0.338100
@<TRIPOS>BOND
     1     1     7 1   
     2     1    25 1   
     3     1    26 1   
     4     1    27 1   
     5     2    28 1   
     6     2    29 1   
     7     2    30 1   
     8     2    55 1   
     9     3     4 ar  
    10     3    18 ar  
    11     3    55 1   
    12     4     5 ar  
    13     4    31 1   
    14     5    15 ar  
    15     5    51 1   
    16     6    14 1   
    17     6    19 1   
    18     6    51 2   
    19     7    19 2   
    20     7    20 1   
    21     8     9 ar  
    22     8    13 ar  
    23     8    20 1   
    24     9    10 ar  
    25     9    33 1   
    26    10    11 ar  
    27    10    34 1   
    28    11    12 ar  
    29    11    21 1   
    30    12    13 ar  
    31    12    44 1   
    32    13    45 1   
    33    14    20 1   
    34    14    22 2   
    35    15    16 ar  
    36    15    46 1   
    37    16    18 ar  
    38    16    23 1   
    39    17    23 1   
    40    17    47 1   
    41    17    48 1   
    42    17    49 1   
    43    18    24 1   
    44    21    52 1   
    45    21    53 1   
    46    21    54 1   
    47    24    50 1   
    48    32    51 1   
    49    35    52 1   
    50    36    52 1   
    51    37    52 1   
    52    38    53 1   
    53    39    53 1   
    54    40    53 1   
    55    41    54 1   
    56    42    54 1   
    57    43    54 1   
@<TRIPOS>SUBSTRUCTURE
     1 V6T         1 TEMP              0 ****  ****    0 ROOT
