@<TRIPOS>MOLECULE
V6T
   55    57     1     0     0
SMALL
No Charge or Current Charge


@<TRIPOS>ATOM
      1 C10          9.6480    -2.6700    -7.0920 c3         1 V6T      -0.123400
      2 C01         11.7510   -12.3700    -6.3320 c3         1 V6T       0.150400
      3 C03         10.4430   -10.4890    -5.3800 ca         1 V6T       0.085600
      4 C04         10.9760    -9.5630    -6.3060 ca         1 V6T      -0.138000
      5 C05         10.5920    -8.2050    -6.2820 ca         1 V6T      -0.088800
      6 C07         11.0630    -5.9380    -7.5610 cc         1 V6T      -0.070600
      7 C09         10.4350    -3.8880    -7.5000 cd         1 V6T       0.436900
      8 C12         11.5490    -2.8450    -9.3570 ca         1 V6T       0.129600
      9 C13         11.1910    -2.9140   -10.7130 ca         1 V6T      -0.084500
     10 C14         11.3750    -1.8050   -11.5580 ca         1 V6T      -0.084000
     11 C15         11.9320    -0.6070   -11.0540 ca         1 V6T       0.103000
     12 C20         12.3040    -0.5520    -9.6950 ca         1 V6T      -0.084000
     13 C21         12.1180    -1.6620    -8.8540 ca         1 V6T      -0.084500
     14 C22         11.7950    -5.2740    -8.6580 c          1 V6T       0.551200
     15 C24          9.6580    -7.7800    -5.3120 ca         1 V6T      -0.138000
     16 C25          9.1170    -8.6930    -4.3820 ca         1 V6T       0.085600
     17 C27          7.7280    -6.9550    -3.2910 c3         1 V6T       0.150400
     18 C28          9.5090   -10.0460    -4.4170 ca         1 V6T       0.133100
     19 N08         10.2390    -5.0520    -6.8820 nc         1 V6T      -0.552300
     20 N11         11.3640    -3.9820    -8.5120 n          1 V6T      -0.313500
     21 N16         12.1580     0.6340   -11.9230 n4         1 V6T      -0.538000
     22 O23         12.5720    -5.7200    -9.4900 o          1 V6T      -0.501000
     23 O26          8.1980    -8.3100    -3.4160 os         1 V6T      -0.338100
     24 O29          8.9720   -10.9180    -3.5040 oh         1 V6T      -0.499100
     25 H1           8.8050    -2.9400    -6.4450 hc         1 V6T       0.063700
     26 H2          10.2780    -1.9650    -6.5390 hc         1 V6T       0.063700
     27 H3           9.2380    -2.1510    -7.9660 hc         1 V6T       0.063700
     28 H4          11.8890   -13.4440    -6.1550 h1         1 V6T       0.044367
     29 H5          11.3930   -12.2390    -7.3610 h1         1 V6T       0.044367
     30 H6          12.7280   -11.8810    -6.2320 h1         1 V6T       0.044367
     31 H7          11.6950    -9.8880    -7.0530 ha         1 V6T       0.136500
     32 H8          11.8890    -7.7720    -7.9540 ha         1 V6T       0.194000
     33 H11         10.7620    -3.8300   -11.1130 ha         1 V6T       0.158500
     34 H12         11.0800    -1.9010   -12.5970 ha         1 V6T       0.133500
     35 H13         14.0220     1.1730   -10.9710 hx         1 V6T       0.096033
     36 H14         14.1980     0.1170   -12.3980 hx         1 V6T       0.096033
     37 H15         13.8110     1.8470   -12.6100 hx         1 V6T       0.096033
     38 H16         10.6160     0.2040   -13.3780 hx         1 V6T       0.096033
     39 H17         11.8640     1.3460   -13.9460 hx         1 V6T       0.096033
     40 H18         12.2400    -0.3940   -13.8240 hx         1 V6T       0.096033
     41 H19         11.7070     2.0390   -10.3430 hx         1 V6T       0.096033
     42 H20         11.5190     2.6990   -11.9890 hx         1 V6T       0.096033
     43 H21         10.3030     1.5680   -11.3350 hx         1 V6T       0.096033
     44 H22         12.7430     0.3540    -9.2880 ha         1 V6T       0.133500
     45 H23         12.4240    -1.6050    -7.8120 ha         1 V6T       0.158500
     46 H24          9.3550    -6.7410    -5.2820 ha         1 V6T       0.136500
     47 H25          7.0100    -6.8770    -2.4660 h1         1 V6T       0.044367
     48 H26          8.5610    -6.2710    -3.0820 h1         1 V6T       0.044367
     49 H27          7.2260    -6.6290    -4.2110 h1         1 V6T       0.044367
     50 H28          8.3570   -10.3970    -2.9420 ho         1 V6T       0.485000
     51 C06         11.1870    -7.2780    -7.2800 cf         1 V6T       0.040800
     52 C17         13.6570     0.9680   -11.9800 c3         1 V6T       0.083567
     53 C18         11.6840     0.4320   -13.3750 c3         1 V6T       0.083567
     54 C19         11.3640     1.8230   -11.3560 c3         1 V6T       0.083567
     55 O02         10.8080   -11.8270    -5.3880 os         1 V6T      -0.338100
@<TRIPOS>BOND
     1     1     7 1   
     2     1    25 1   
     3     1    26 1   
     4     1    27 1   
     5     2    28 1   
     6     2    29 1   
     7     2    30 1   
     8     2    55 1   
     9     3     4 ar  
    10     3    18 ar  
    11     3    55 1   
    12     4     5 ar  
    13     4    31 1   
    14     5    15 ar  
    15     5    51 1   
    16     6    14 1   
    17     6    19 1   
    18     6    51 2   
    19     7    19 2   
    20     7    20 1   
    21     8     9 ar  
    22     8    13 ar  
    23     8    20 1   
    24     9    10 ar  
    25     9    33 1   
    26    10    11 ar  
    27    10    34 1   
    28    11    12 ar  
    29    11    21 1   
    30    12    13 ar  
    31    12    44 1   
    32    13    45 1   
    33    14    20 1   
    34    14    22 2   
    35    15    16 ar  
    36    15    46 1   
    37    16    18 ar  
    38    16    23 1   
    39    17    23 1   
    40    17    47 1   
    41    17    48 1   
    42    17    49 1   
    43    18    24 1   
    44    21    52 1   
    45    21    53 1   
    46    21    54 1   
    47    24    50 1   
    48    32    51 1   
    49    35    52 1   
    50    36    52 1   
    51    37    52 1   
    52    38    53 1   
    53    39    53 1   
    54    40    53 1   
    55    41    54 1   
    56    42    54 1   
    57    43    54 1   
@<TRIPOS>SUBSTRUCTURE
     1 V6T         1 TEMP              0 ****  ****    0 ROOT
