@<TRIPOS>MOLECULE
V6U
   41    43     1     0     0
SMALL
abcg2


@<TRIPOS>ATOM
      1 C12        -29.6880    -1.0830     1.2840 ca         1 V6U      -0.139600
      2 C13        -28.9910     0.1230     1.0960 ca         1 V6U      -0.016300
      3 C14        -27.9680     0.4350     1.9950 ca         1 V6U      -0.117000
      4 C15        -27.6490    -0.3990     3.0560 ca         1 V6U      -0.083000
      5 C16        -28.3460    -1.5900     3.2380 ca         1 V6U      -0.128000
      6 C17        -29.3480    -1.9320     2.3450 ca         1 V6U      -0.065000
      7 C18        -33.0150     4.1510     1.3190 c3         1 V6U       0.075900
      8 C02        -26.6860     5.8170     1.5050 ca         1 V6U       0.253000
      9 C03        -28.0010     5.3970     1.4900 ca         1 V6U      -0.245000
     10 C04        -28.2220     4.1410     0.9070 ca         1 V6U       0.159000
     11 C06        -25.9800     3.9370     0.4910 ca         1 V6U       0.392900
     12 C09        -29.5750     3.5850     0.8320 cc         1 V6U       0.177000
     13 C10        -30.0310     2.3030     0.4160 cc         1 V6U      -0.144300
     14 C11        -31.4030     2.3730     0.5680 cd         1 V6U      -0.159000
     15 C21        -29.2620     1.0920    -0.0390 c3         1 V6U       0.045200
     16 C22        -30.8170    -1.4870     0.4000 c          1 V6U       0.607700
     17 C25        -31.9740    -3.3240    -0.5430 c3         1 V6U       0.151900
     18 N01        -25.6680     5.1350     1.0300 nb         1 V6U      -0.241000
     19 N05        -27.2130     3.4210     0.4070 nb         1 V6U      -0.264000
     20 N07        -31.6990     3.6090     1.0330 na         1 V6U       0.136800
     21 N08        -30.6120     4.3590     1.2000 nd         1 V6U      -0.515800
     22 N20        -24.9580     3.1890     0.0220 nv         1 V6U      -1.068900
     23 O23        -30.8690    -2.8160     0.2310 os         1 V6U      -0.444100
     24 O24        -31.6220    -0.7300    -0.1020 o          1 V6U      -0.501000
     25 H141       -27.4120     1.3520     1.8440 ha         1 V6U       0.134000
     26 H151       -26.8550    -0.1230     3.7380 ha         1 V6U       0.116000
     27 H161       -28.1060    -2.2490     4.0620 ha         1 V6U       0.117000
     28 H171       -29.8910    -2.8580     2.4720 ha         1 V6U       0.124000
     29 H182       -33.0550     4.4920     2.3520 h1         1 V6U       0.059033
     30 H181       -33.2250     4.9870     0.6520 h1         1 V6U       0.059033
     31 H183       -33.7500     3.3660     1.1630 h1         1 V6U       0.059033
     32 H031       -28.8030     5.9880     1.8970 ha         1 V6U       0.164000
     33 H111       -32.1620     1.6340     0.3840 h4         1 V6U       0.177000
     34 H212       -29.8150     0.5990    -0.8330 hc         1 V6U       0.072200
     35 H211       -28.3060     1.4160    -0.4420 hc         1 V6U       0.072200
     36 H253       -31.8480    -4.4030    -0.5510 h1         1 V6U       0.049700
     37 H252       -32.9180    -3.0520    -0.0740 h1         1 V6U       0.049700
     38 H251       -31.9380    -2.9280    -1.5570 h1         1 V6U       0.049700
     39 H201       -25.1680     2.3660    -0.5160 hn         1 V6U       0.502000
     40 H202       -24.0470     3.6060    -0.0700 hn         1 V6U       0.502000
     41 CL19       -26.3060     7.3790     2.2090 cl         1 V6U      -0.175000
@<TRIPOS>BOND
     1     1     2 ar  
     2     1     6 ar  
     3     1    16 1   
     4     2     3 ar  
     5     2    15 1   
     6     3     4 ar  
     7     3    25 1   
     8     4     5 ar  
     9     4    26 1   
    10     5     6 ar  
    11     5    27 1   
    12     6    28 1   
    13     7    20 1   
    14     7    29 1   
    15     7    30 1   
    16     7    31 1   
    17     8     9 ar  
    18     8    18 ar  
    19     8    41 1   
    20     9    10 ar  
    21     9    32 1   
    22    10    12 1   
    23    10    19 ar  
    24    11    18 ar  
    25    11    19 ar  
    26    11    22 1   
    27    12    13 1   
    28    12    21 2   
    29    13    14 2   
    30    13    15 1   
    31    14    20 1   
    32    14    33 1   
    33    15    34 1   
    34    15    35 1   
    35    16    23 1   
    36    16    24 2   
    37    17    23 1   
    38    17    36 1   
    39    17    37 1   
    40    17    38 1   
    41    20    21 1   
    42    22    39 1   
    43    22    40 1   
@<TRIPOS>SUBSTRUCTURE
     1 V6U         1 TEMP              0 ****  ****    0 ROOT
