@<TRIPOS>MOLECULE
V6U
   41    43     1     0     0
SMALL
No Charge or Current Charge


@<TRIPOS>ATOM
      1 C12        -29.7790    -1.1270     1.3490 ca         1 V6U      -0.139600
      2 C13        -29.0950     0.1220     1.2620 ca         1 V6U      -0.016300
      3 C14        -28.1410     0.4500     2.2500 ca         1 V6U      -0.117000
      4 C15        -27.8540    -0.4310     3.3030 ca         1 V6U      -0.083000
      5 C16        -28.5160    -1.6620     3.3810 ca         1 V6U      -0.128000
      6 C17        -29.4690    -2.0070     2.4120 ca         1 V6U      -0.065000
      7 C18        -33.0250     4.2360     1.5400 c3         1 V6U       0.075900
      8 C02        -26.5700     5.9510     1.1710 ca         1 V6U       0.253000
      9 C03        -27.9010     5.5130     1.2350 ca         1 V6U      -0.245000
     10 C04        -28.1950     4.1820     0.8450 ca         1 V6U       0.159000
     11 C06        -25.9480     3.9130     0.4020 ca         1 V6U       0.392900
     12 C09        -29.5940     3.6700     0.8880 cc         1 V6U       0.177000
     13 C10        -30.0780     2.3580     0.5720 cc         1 V6U      -0.144300
     14 C11        -31.4260     2.3990     0.7760 cd         1 V6U      -0.159000
     15 C21        -29.3110     1.1280     0.1240 c3         1 V6U       0.045200
     16 C22        -30.8330    -1.5630     0.3590 c          1 V6U       0.607700
     17 C25        -31.6780    -3.4310    -0.9130 c3         1 V6U       0.151900
     18 N01        -25.5780     5.1490     0.7520 nb         1 V6U      -0.241000
     19 N05        -27.1830     3.3920     0.4210 nb         1 V6U      -0.264000
     20 N07        -31.7050     3.6940     1.1920 na         1 V6U       0.136800
     21 N08        -30.5750     4.4800     1.2630 nd         1 V6U      -0.515800
     22 N20        -24.9610     3.0900    -0.0280 nv         1 V6U      -1.068900
     23 O23        -30.7200    -2.8870     0.0140 os         1 V6U      -0.444100
     24 O24        -31.7160    -0.8300    -0.0630 o          1 V6U      -0.501000
     25 H141       -27.6120     1.3970     2.2010 ha         1 V6U       0.134000
     26 H151       -27.1150    -0.1600     4.0540 ha         1 V6U       0.116000
     27 H161       -28.2940    -2.3490     4.1950 ha         1 V6U       0.117000
     28 H171       -29.9810    -2.9640     2.4950 ha         1 V6U       0.124000
     29 H182       -33.0260     4.5500     2.5910 h1         1 V6U       0.059033
     30 H181       -33.2460     5.0990     0.9010 h1         1 V6U       0.059033
     31 H183       -33.7930     3.4680     1.3910 h1         1 V6U       0.059033
     32 H031       -28.6760     6.1910     1.5790 ha         1 V6U       0.164000
     33 H111       -32.1890     1.6370     0.6680 h4         1 V6U       0.177000
     34 H212       -29.8460     0.6710    -0.7130 hc         1 V6U       0.072200
     35 H211       -28.3500     1.3770    -0.3290 hc         1 V6U       0.072200
     36 H253       -31.4690    -4.4920    -1.1000 h1         1 V6U       0.049700
     37 H252       -32.6980    -3.3500    -0.5160 h1         1 V6U       0.049700
     38 H251       -31.6370    -2.9020    -1.8750 h1         1 V6U       0.049700
     39 H201       -25.2220     2.2330    -0.5100 hn         1 V6U       0.502000
     40 H202       -24.0590     3.4940    -0.2710 hn         1 V6U       0.502000
     41 Cl19       -26.1380     7.5870     1.6430 cl         1 V6U      -0.175000
@<TRIPOS>BOND
     1     1     2 ar  
     2     1     6 ar  
     3     1    16 1   
     4     2     3 ar  
     5     2    15 1   
     6     3     4 ar  
     7     3    25 1   
     8     4     5 ar  
     9     4    26 1   
    10     5     6 ar  
    11     5    27 1   
    12     6    28 1   
    13     7    20 1   
    14     7    29 1   
    15     7    30 1   
    16     7    31 1   
    17     8     9 ar  
    18     8    18 ar  
    19     8    41 1   
    20     9    10 ar  
    21     9    32 1   
    22    10    12 1   
    23    10    19 ar  
    24    11    18 ar  
    25    11    19 ar  
    26    11    22 1   
    27    12    13 1   
    28    12    21 2   
    29    13    14 2   
    30    13    15 1   
    31    14    20 1   
    32    14    33 1   
    33    15    34 1   
    34    15    35 1   
    35    16    23 1   
    36    16    24 2   
    37    17    23 1   
    38    17    36 1   
    39    17    37 1   
    40    17    38 1   
    41    20    21 1   
    42    22    39 1   
    43    22    40 1   
@<TRIPOS>SUBSTRUCTURE
     1 V6U         1 TEMP              0 ****  ****    0 ROOT
