@<TRIPOS>MOLECULE
V6V
   21    22     1     0     0
SMALL
No Charge or Current Charge


@<TRIPOS>ATOM
      1 C10         45.1960     1.6790   -20.8270 c3         1 V6V       0.001100
      2 C01         45.4830    -3.6630   -21.0850 ca         1 V6V      -0.106000
      3 C02         44.1740    -3.2050   -20.8220 ca         1 V6V      -0.126000
      4 C03         43.9710    -1.8220   -20.7310 ca         1 V6V      -0.060200
      5 C04         44.9920    -0.9290   -20.8880 ca         1 V6V      -0.102800
      6 C05         46.3050    -1.3500   -21.1510 ca         1 V6V      -0.039000
      7 C06         46.5420    -2.7380   -21.2490 ca         1 V6V      -0.055900
      8 C08         43.0360     0.2620   -20.4750 cc         1 V6V      -0.085300
      9 C09         44.4120     0.3900   -20.7290 cd         1 V6V      -0.153400
     10 C11         42.0390     1.3570   -20.2460 c          1 V6V       0.728200
     11 N07         42.8000    -1.1330   -20.4840 na         1 V6V      -0.191700
     12 O12         42.3870     2.5290   -20.2670 o          1 V6V      -0.709500
     13 O13         40.8780     1.0260   -20.0410 o          1 V6V      -0.709500
     14 Br14        48.3080    -3.3760   -21.6050 br         1 V6V      -0.169100
     15 H1          44.8110     2.3130   -21.6340 hc         1 V6V       0.029367
     16 H2          45.1390     2.2470   -19.8910 hc         1 V6V       0.029367
     17 H3          46.2570     1.4990   -21.0330 hc         1 V6V       0.029367
     18 H4          45.6770    -4.7300   -21.1620 ha         1 V6V       0.105000
     19 H5          43.3510    -3.9050   -20.6940 ha         1 V6V       0.103000
     20 H6          47.1160    -0.6370   -21.2760 ha         1 V6V       0.117000
     21 H7          41.8930    -1.5600   -20.3300 hn         1 V6V       0.366000
@<TRIPOS>BOND
     1     1     9 1   
     2     1    15 1   
     3     1    16 1   
     4     1    17 1   
     5     2     3 ar  
     6     2     7 ar  
     7     2    18 1   
     8     3     4 ar  
     9     3    19 1   
    10     4     5 ar  
    11     4    11 1   
    12     5     6 ar  
    13     5     9 1   
    14     6     7 ar  
    15     6    20 1   
    16     7    14 1   
    17     8     9 2   
    18     8    10 1   
    19     8    11 1   
    20    10    12 1   
    21    10    13 1   
    22    11    21 1   
@<TRIPOS>SUBSTRUCTURE
     1 V6V         1 TEMP              0 ****  ****    0 ROOT
