@<TRIPOS>MOLECULE
V6V
   21    22     1     0     0
SMALL
abcg2


@<TRIPOS>ATOM
      1 C10         45.2520     1.6980   -20.8290 c3         1 V6V       0.001100
      2 C01         45.4270    -3.6250   -21.1090 ca         1 V6V      -0.106000
      3 C02         44.1540    -3.1750   -20.8200 ca         1 V6V      -0.126000
      4 C03         43.9530    -1.8000   -20.7160 ca         1 V6V      -0.060200
      5 C04         45.0080    -0.8760   -20.8920 ca         1 V6V      -0.102800
      6 C05         46.2940    -1.3460   -21.1840 ca         1 V6V      -0.039000
      7 C06         46.4750    -2.7080   -21.2880 ca         1 V6V      -0.055900
      8 C08         43.1250     0.2620   -20.4570 cc         1 V6V      -0.085300
      9 C09         44.4650     0.4350   -20.7190 cd         1 V6V      -0.153400
     10 C11         42.0080     1.2400   -20.1900 c          1 V6V       0.728200
     11 N07         42.8360    -1.0800   -20.4570 na         1 V6V      -0.191700
     12 O12         42.2920     2.4500   -20.2350 o          1 V6V      -0.709500
     13 O13         40.8980     0.7230   -19.9520 o          1 V6V      -0.709500
     14 BR14        48.2020    -3.3820   -21.6970 br         1 V6V      -0.169100
     15 H1          45.3120     2.0490   -21.8630 hc         1 V6V       0.029367
     16 H2          44.8100     2.4980   -20.2430 hc         1 V6V       0.029367
     17 H3          46.2760     1.5480   -20.4860 hc         1 V6V       0.029367
     18 H4          45.6090    -4.6880   -21.1970 ha         1 V6V       0.105000
     19 H5          43.3430    -3.8780   -20.6820 ha         1 V6V       0.103000
     20 H6          47.1150    -0.6540   -21.3260 ha         1 V6V       0.117000
     21 H7          41.9120    -1.4390   -20.2770 hn         1 V6V       0.366000
@<TRIPOS>BOND
     1     1     9 1   
     2     1    15 1   
     3     1    16 1   
     4     1    17 1   
     5     2     3 ar  
     6     2     7 ar  
     7     2    18 1   
     8     3     4 ar  
     9     3    19 1   
    10     4     5 ar  
    11     4    11 1   
    12     5     6 ar  
    13     5     9 1   
    14     6     7 ar  
    15     6    20 1   
    16     7    14 1   
    17     8     9 2   
    18     8    10 1   
    19     8    11 1   
    20    10    12 1   
    21    10    13 1   
    22    11    21 1   
@<TRIPOS>SUBSTRUCTURE
     1 V6V         1 TEMP              0 ****  ****    0 ROOT
