@<TRIPOS>MOLECULE
V6W
   31    32     1     0     0
SMALL
No Charge or Current Charge


@<TRIPOS>ATOM
      1 C           -2.2710   -13.0600    16.2000 c          1 V6W       0.696000
      2 CA          -3.4710   -13.1520    15.1690 c3         1 V6W       0.013500
      3 CB          -4.7140   -13.8070    15.8290 c3         1 V6W       0.030800
      4 CG          -5.2040   -13.0710    17.0510 cc         1 V6W      -0.141400
      5 CD1         -5.0870   -13.4720    18.3800 cd         1 V6W      -0.115100
      6 CE2         -6.1400   -11.4890    18.3880 ca         1 V6W      -0.027200
      7 O           -1.7610   -14.1010    16.5960 o          1 V6W      -0.741000
      8 NE1         -5.6650   -12.4940    19.2170 na         1 V6W      -0.032700
      9 C25         -7.0930   -12.9840    21.2250 c          1 V6W       0.709000
     10 O26         -7.2970   -14.1900    21.2420 o          1 V6W      -0.726500
     11 O27         -7.8950   -12.1600    21.6420 o          1 V6W      -0.726500
     12 CD2         -5.8810   -11.8020    17.0800 ca         1 V6W      -0.078800
     13 CE3         -6.2630   -10.9580    16.0270 ca         1 V6W      -0.060000
     14 CZ3         -6.9270    -9.7560    16.3480 ca         1 V6W      -0.182000
     15 CH2         -7.1960    -9.4270    17.6970 ca         1 V6W      -0.140000
     16 CZ2         -6.8020   -10.2990    18.7340 ca         1 V6W      -0.104000
     17 N           -3.1560   -13.8160    13.8460 n8         1 V6W      -1.007200
     18 HA          -3.7480   -12.1160    14.9320 h1         1 V6W       0.041700
     19 HB2         -5.5290   -13.8540    15.0960 hc         1 V6W       0.023200
     20 HB3         -4.4810   -14.8450    16.0950 hc         1 V6W       0.023200
     21 HD1         -4.6330   -14.3700    18.7870 h4         1 V6W       0.206000
     22 H6          -4.9500   -13.1230    21.0910 h1         1 V6W       0.037200
     23 H7          -5.5670   -11.4610    21.0520 h1         1 V6W       0.037200
     24 HE3         -6.0550   -11.2210    14.9920 ha         1 V6W       0.095000
     25 HZ3         -7.2360    -9.0800    15.5540 ha         1 V6W       0.070000
     26 HH2         -7.7090    -8.5000    17.9360 ha         1 V6W       0.071000
     27 HZ2         -7.0100   -10.0510    19.7720 ha         1 V6W       0.107000
     28 H           -2.3670   -13.3260    13.4070 hn         1 V6W       0.372000
     29 H2          -2.7740   -14.7510    14.0370 hn         1 V6W       0.372000
     30 OXT         -1.8010   -11.9560    16.4450 o          1 V6W      -0.741000
     31 C24         -5.7420   -12.4810    20.6880 c3         1 V6W      -0.081400
@<TRIPOS>BOND
     1     1     2 1   
     2     1     7 1   
     3     1    30 1   
     4     2     3 1   
     5     2    17 1   
     6     2    18 1   
     7     3     4 1   
     8     3    19 1   
     9     3    20 1   
    10     4     5 2   
    11     4    12 1   
    12     5     8 1   
    13     5    21 1   
    14     6     8 1   
    15     6    12 ar  
    16     6    16 ar  
    17     8    31 1   
    18     9    10 1   
    19     9    11 1   
    20     9    31 1   
    21    12    13 ar  
    22    13    14 ar  
    23    13    24 1   
    24    14    15 ar  
    25    14    25 1   
    26    15    16 ar  
    27    15    26 1   
    28    16    27 1   
    29    17    28 1   
    30    17    29 1   
    31    22    31 1   
    32    23    31 1   
@<TRIPOS>SUBSTRUCTURE
     1 V6W         1 TEMP              0 ****  ****    0 ROOT
