@<TRIPOS>MOLECULE
V6W
   31    32     1     0     0
SMALL
abcg2


@<TRIPOS>ATOM
      1 C           -2.3140   -12.9990    16.1940 c          1 V6W       0.696000
      2 CA          -3.4720   -13.1650    15.1820 c3         1 V6W       0.013500
      3 CB          -4.6790   -13.8160    15.8740 c3         1 V6W       0.030800
      4 CG          -5.1900   -13.0530    17.0490 cc         1 V6W      -0.141400
      5 CD1         -5.0550   -13.3770    18.3700 cd         1 V6W      -0.115100
      6 CE2         -6.1340   -11.4440    18.3750 ca         1 V6W      -0.027200
      7 O           -1.7420   -14.0580    16.5360 o          1 V6W      -0.741000
      8 NE1         -5.6030   -12.4130    19.1730 na         1 V6W      -0.032700
      9 C25         -7.0750   -12.9890    21.1420 c          1 V6W       0.709000
     10 O26         -7.8990   -13.4120    20.3170 o          1 V6W      -0.726500
     11 O27         -7.1810   -12.9300    22.3810 o          1 V6W      -0.726500
     12 CD2         -5.8830   -11.8000    17.0300 ca         1 V6W      -0.078800
     13 CE3         -6.3180   -10.9490    16.0080 ca         1 V6W      -0.060000
     14 CZ3         -6.9850    -9.7850    16.3400 ca         1 V6W      -0.182000
     15 CH2         -7.2280    -9.4510    17.6830 ca         1 V6W      -0.140000
     16 CZ2         -6.8100   -10.2710    18.7140 ca         1 V6W      -0.104000
     17 N           -3.1270   -13.9760    14.0160 n8         1 V6W      -1.007200
     18 HA          -3.7750   -12.1780    14.8200 h1         1 V6W       0.041700
     19 HB2         -5.4710   -13.9390    15.1280 hc         1 V6W       0.023200
     20 HB3         -4.3920   -14.8240    16.1900 hc         1 V6W       0.023200
     21 HD1         -4.5850   -14.2450    18.8110 h4         1 V6W       0.206000
     22 H6          -4.9210   -13.1240    20.9790 h1         1 V6W       0.037200
     23 H7          -5.5120   -11.4830    21.0220 h1         1 V6W       0.037200
     24 HE3         -6.1360   -11.1970    14.9690 ha         1 V6W       0.095000
     25 HZ3         -7.3280    -9.1190    15.5590 ha         1 V6W       0.070000
     26 HH2         -7.7560    -8.5350    17.9160 ha         1 V6W       0.071000
     27 HZ2         -7.0060   -10.0080    19.7460 ha         1 V6W       0.107000
     28 H           -2.4130   -13.4950    13.4790 hn         1 V6W       0.372000
     29 H2          -2.6720   -14.8170    14.3550 hn         1 V6W       0.372000
     30 OXT         -2.0500   -11.8470    16.5900 o          1 V6W      -0.741000
     31 C24         -5.7150   -12.4730    20.6060 c3         1 V6W      -0.081400
@<TRIPOS>BOND
     1     1     2 1   
     2     1     7 1   
     3     1    30 1   
     4     2     3 1   
     5     2    17 1   
     6     2    18 1   
     7     3     4 1   
     8     3    19 1   
     9     3    20 1   
    10     4     5 2   
    11     4    12 1   
    12     5     8 1   
    13     5    21 1   
    14     6     8 1   
    15     6    12 ar  
    16     6    16 ar  
    17     8    31 1   
    18     9    10 1   
    19     9    11 1   
    20     9    31 1   
    21    12    13 ar  
    22    13    14 ar  
    23    13    24 1   
    24    14    15 ar  
    25    14    25 1   
    26    15    16 ar  
    27    15    26 1   
    28    16    27 1   
    29    17    28 1   
    30    17    29 1   
    31    22    31 1   
    32    23    31 1   
@<TRIPOS>SUBSTRUCTURE
     1 V6W         1 TEMP              0 ****  ****    0 ROOT
