@<TRIPOS>MOLECULE
V6Y
   55    59     1     0     0
SMALL
bcc


@<TRIPOS>ATOM
      1 C01        -50.0390    -6.4630    27.9540 ca         1 V6Y      -0.147000
      2 C02        -50.3600    -5.4470    28.8320 ca         1 V6Y      -0.151000
      3 C03        -49.5060    -4.3450    28.8820 ca         1 V6Y      -0.072200
      4 C04        -48.3460    -4.2530    28.0810 ca         1 V6Y      -0.083800
      5 C05        -48.0530    -5.2960    27.1920 ca         1 V6Y      -0.083000
      6 C06        -48.8960    -6.3880    27.1390 ca         1 V6Y      -0.185000
      7 C08        -48.5110    -2.3900    29.3420 cc         1 V6Y      -0.068300
      8 C09        -47.7210    -2.9980    28.3870 cd         1 V6Y      -0.126400
      9 C10        -46.5020    -2.5130    27.7270 ca         1 V6Y       0.064200
     10 C11        -46.4600    -1.2660    27.1140 ca         1 V6Y      -0.122000
     11 C12        -45.3170    -0.8290    26.4490 ca         1 V6Y       0.116100
     12 C13        -44.1920    -1.6480    26.3890 ca         1 V6Y      -0.216000
     13 C14        -44.2360    -2.8970    26.9970 ca         1 V6Y      -0.106000
     14 C15        -45.3710    -3.3330    27.6600 ca         1 V6Y      -0.164000
     15 C16        -48.3870    -1.1000    30.1240 c          1 V6Y       0.935800
     16 C20        -43.2360     1.3830    26.3580 ca         1 V6Y      -0.111300
     17 C21        -43.6310     2.0340    27.5250 ca         1 V6Y      -0.108000
     18 C22        -42.6860     2.4050    28.4680 ca         1 V6Y      -0.121000
     19 C23        -41.3400     2.1220    28.2710 ca         1 V6Y      -0.144000
     20 C24        -40.9530     1.4770    27.1090 ca         1 V6Y       0.118100
     21 C25        -41.8910     1.1140    26.1500 ca         1 V6Y      -0.150000
     22 C27        -39.1940    -0.0590    26.7710 ca         1 V6Y       0.090100
     23 C28        -39.9230    -1.1600    27.2060 ca         1 V6Y      -0.203000
     24 C29        -39.3880    -2.4320    27.0530 ca         1 V6Y      -0.083000
     25 C30        -38.1360    -2.6390    26.4820 ca         1 V6Y      -0.158600
     26 C31        -37.4250    -1.5170    26.0610 ca         1 V6Y      -0.083000
     27 C32        -37.9420    -0.2390    26.1940 ca         1 V6Y      -0.203000
     28 C33        -44.2530     0.9850    25.3180 c3         1 V6Y       0.192700
     29 C34        -37.5630    -4.0430    26.3270 c          1 V6Y       0.927200
     30 N07        -49.5700    -3.2090    29.6210 na         1 V6Y      -0.147400
     31 O17        -49.3690    -0.8350    30.8470 o          1 V6Y      -0.809800
     32 O18        -47.3400    -0.4490    29.9850 o          1 V6Y      -0.809800
     33 O19        -45.4070     0.3960    25.8780 os         1 V6Y      -0.327900
     34 O26        -39.6220     1.2300    26.9090 os         1 V6Y      -0.276200
     35 O35        -38.2880    -4.9830    26.7090 o          1 V6Y      -0.831800
     36 O36        -36.4210    -4.1270    25.8340 o          1 V6Y      -0.831800
     37 H1         -50.6800    -7.3330    27.8890 ha         1 V6Y       0.100000
     38 H2         -51.2450    -5.5010    29.4540 ha         1 V6Y       0.112000
     39 H3         -47.1780    -5.2470    26.5550 ha         1 V6Y       0.130000
     40 H4         -48.6780    -7.1990    26.4560 ha         1 V6Y       0.106000
     41 H5         -47.3290    -0.6220    27.1450 ha         1 V6Y       0.150000
     42 H6         -43.2880    -1.3460    25.8790 ha         1 V6Y       0.129000
     43 H7         -43.3610    -3.5330    26.9540 ha         1 V6Y       0.127000
     44 H8         -45.3790    -4.3020    28.1410 ha         1 V6Y       0.128000
     45 H9         -44.6770     2.2510    27.7010 ha         1 V6Y       0.151000
     46 H10        -42.9970     2.9120    29.3720 ha         1 V6Y       0.127000
     47 H11        -40.6000     2.3950    29.0130 ha         1 V6Y       0.135000
     48 H12        -41.5720     0.6040    25.2480 ha         1 V6Y       0.142000
     49 H13        -40.8960    -1.0440    27.6660 ha         1 V6Y       0.123500
     50 H14        -39.9640    -3.2820    27.3940 ha         1 V6Y       0.144500
     51 H15        -36.4480    -1.6440    25.6130 ha         1 V6Y       0.144500
     52 H16        -37.3780     0.6210    25.8550 ha         1 V6Y       0.123500
     53 H17        -43.7940     0.3350    24.5650 h1         1 V6Y       0.045200
     54 H18        -44.6160     1.8710    24.7940 h1         1 V6Y       0.045200
     55 H19        -50.2710    -2.9710    30.3050 hn         1 V6Y       0.311700
@<TRIPOS>BOND
     1     1     2 ar  
     2     1     6 ar  
     3     1    37 1   
     4     2     3 ar  
     5     2    38 1   
     6     3     4 ar  
     7     3    30 1   
     8     4     5 ar  
     9     4     8 1   
    10     5     6 ar  
    11     5    39 1   
    12     6    40 1   
    13     7     8 2   
    14     7    15 1   
    15     7    30 1   
    16     8     9 1   
    17     9    10 ar  
    18     9    14 ar  
    19    10    11 ar  
    20    10    41 1   
    21    11    12 ar  
    22    11    33 1   
    23    12    13 ar  
    24    12    42 1   
    25    13    14 ar  
    26    13    43 1   
    27    14    44 1   
    28    15    31 1   
    29    15    32 1   
    30    16    17 ar  
    31    16    21 ar  
    32    16    28 1   
    33    17    18 ar  
    34    17    45 1   
    35    18    19 ar  
    36    18    46 1   
    37    19    20 ar  
    38    19    47 1   
    39    20    21 ar  
    40    20    34 1   
    41    21    48 1   
    42    22    23 ar  
    43    22    27 ar  
    44    22    34 1   
    45    23    24 ar  
    46    23    49 1   
    47    24    25 ar  
    48    24    50 1   
    49    25    26 ar  
    50    25    29 1   
    51    26    27 ar  
    52    26    51 1   
    53    27    52 1   
    54    28    33 1   
    55    28    53 1   
    56    28    54 1   
    57    29    35 1   
    58    29    36 1   
    59    30    55 1   
@<TRIPOS>SUBSTRUCTURE
     1 V6Y         1 TEMP              0 ****  ****    0 ROOT
