@<TRIPOS>MOLECULE
V6Y
   55    59     1     0     0
SMALL
No Charge or Current Charge


@<TRIPOS>ATOM
      1 C01        -49.7110    -6.6100    28.0500 ca         1 V6Y      -0.129000
      2 C02        -50.1700    -5.4910    28.7740 ca         1 V6Y      -0.133000
      3 C03        -49.3440    -4.3600    28.8260 ca         1 V6Y      -0.072200
      4 C04        -48.1240    -4.3210    28.2110 ca         1 V6Y      -0.083800
      5 C05        -47.6520    -5.4130    27.4600 ca         1 V6Y      -0.065000
      6 C06        -48.4600    -6.5690    27.3910 ca         1 V6Y      -0.167000
      7 C08        -48.5130    -2.2540    29.2310 cc         1 V6Y      -0.068300
      8 C09        -47.5830    -2.9940    28.4740 cd         1 V6Y      -0.126400
      9 C10        -46.3800    -2.4980    27.7670 ca         1 V6Y       0.064200
     10 C11        -46.3740    -1.2420    27.1260 ca         1 V6Y      -0.104000
     11 C12        -45.2430    -0.7860    26.4280 ca         1 V6Y       0.116100
     12 C13        -44.0960    -1.6050    26.3530 ca         1 V6Y      -0.198000
     13 C14        -44.0890    -2.8580    26.9850 ca         1 V6Y      -0.088000
     14 C15        -45.2240    -3.3000    27.6830 ca         1 V6Y      -0.146000
     15 C16        -48.3830    -0.8680    29.7860 c          1 V6Y       0.725200
     16 C20        -43.2240     1.5350    26.3990 ca         1 V6Y      -0.111300
     17 C21        -43.6860     2.3380    27.4620 ca         1 V6Y      -0.090000
     18 C22        -42.8180     2.7050    28.5060 ca         1 V6Y      -0.103000
     19 C23        -41.4840     2.2630    28.4990 ca         1 V6Y      -0.126000
     20 C24        -41.0180     1.4540    27.4510 ca         1 V6Y       0.118100
     21 C25        -41.8810     1.1080    26.3920 ca         1 V6Y      -0.132000
     22 C27        -39.3330    -0.2390    27.0730 ca         1 V6Y       0.090100
     23 C28        -40.1420    -1.3590    27.3430 ca         1 V6Y      -0.185000
     24 C29        -39.7290    -2.6410    26.9420 ca         1 V6Y      -0.065000
     25 C30        -38.4960    -2.8260    26.2720 ca         1 V6Y      -0.158600
     26 C31        -37.6870    -1.6920    26.0190 ca         1 V6Y      -0.065000
     27 C32        -38.1040    -0.4110    26.4220 ca         1 V6Y      -0.185000
     28 C33        -44.1710     1.1310    25.2700 c3         1 V6Y       0.215900
     29 C34        -38.0470    -4.2120    25.8380 c          1 V6Y       0.716600
     30 N07        -49.5890    -3.1460    29.4350 na         1 V6Y      -0.197700
     31 O17        -49.3500    -0.4140    30.3860 o          1 V6Y      -0.704500
     32 O18        -47.3290    -0.2560    29.7050 o          1 V6Y      -0.704500
     33 O19        -45.3200     0.4510    25.8160 os         1 V6Y      -0.351100
     34 O26        -39.7090     1.0270    27.4650 os         1 V6Y      -0.276200
     35 O35        -38.7680    -5.1670    26.0900 o          1 V6Y      -0.726500
     36 O36        -36.9800    -4.3250    25.2520 o          1 V6Y      -0.726500
     37 H1         -50.3280    -7.5040    27.9870 ha         1 V6Y       0.082000
     38 H2         -51.1380    -5.5040    29.2690 ha         1 V6Y       0.094000
     39 H3         -46.7050    -5.3800    26.9300 ha         1 V6Y       0.112000
     40 H4         -48.1210    -7.4310    26.8220 ha         1 V6Y       0.088000
     41 H5         -47.2630    -0.6200    27.1430 ha         1 V6Y       0.132000
     42 H6         -43.2110    -1.2950    25.8070 ha         1 V6Y       0.111000
     43 H7         -43.2030    -3.4870    26.9340 ha         1 V6Y       0.109000
     44 H8         -45.1920    -4.2620    28.1880 ha         1 V6Y       0.110000
     45 H9         -44.7200     2.6760    27.4790 ha         1 V6Y       0.133000
     46 H10        -43.1810     3.3260    29.3210 ha         1 V6Y       0.109000
     47 H11        -40.8140     2.5400    29.3090 ha         1 V6Y       0.117000
     48 H12        -41.5080     0.5000    25.5720 ha         1 V6Y       0.124000
     49 H13        -41.0880    -1.2410    27.8650 ha         1 V6Y       0.105500
     50 H14        -40.3710    -3.4930    27.1570 ha         1 V6Y       0.126500
     51 H15        -36.7310    -1.8000    25.5110 ha         1 V6Y       0.126500
     52 H16        -37.4720     0.4510    26.2230 ha         1 V6Y       0.105500
     53 H17        -43.6550     0.5020    24.5340 h1         1 V6Y       0.045200
     54 H18        -44.4940     2.0400    24.7460 h1         1 V6Y       0.045200
     55 H19        -50.4240    -2.9200    29.9670 hn         1 V6Y       0.362000
@<TRIPOS>BOND
     1     1     2 ar  
     2     1     6 ar  
     3     1    37 1   
     4     2     3 ar  
     5     2    38 1   
     6     3     4 ar  
     7     3    30 1   
     8     4     5 ar  
     9     4     8 1   
    10     5     6 ar  
    11     5    39 1   
    12     6    40 1   
    13     7     8 2   
    14     7    15 1   
    15     7    30 1   
    16     8     9 1   
    17     9    10 ar  
    18     9    14 ar  
    19    10    11 ar  
    20    10    41 1   
    21    11    12 ar  
    22    11    33 1   
    23    12    13 ar  
    24    12    42 1   
    25    13    14 ar  
    26    13    43 1   
    27    14    44 1   
    28    15    31 1   
    29    15    32 1   
    30    16    17 ar  
    31    16    21 ar  
    32    16    28 1   
    33    17    18 ar  
    34    17    45 1   
    35    18    19 ar  
    36    18    46 1   
    37    19    20 ar  
    38    19    47 1   
    39    20    21 ar  
    40    20    34 1   
    41    21    48 1   
    42    22    23 ar  
    43    22    27 ar  
    44    22    34 1   
    45    23    24 ar  
    46    23    49 1   
    47    24    25 ar  
    48    24    50 1   
    49    25    26 ar  
    50    25    29 1   
    51    26    27 ar  
    52    26    51 1   
    53    27    52 1   
    54    28    33 1   
    55    28    53 1   
    56    28    54 1   
    57    29    35 1   
    58    29    36 1   
    59    30    55 1   
@<TRIPOS>SUBSTRUCTURE
     1 V6Y         1 TEMP              0 ****  ****    0 ROOT
