@<TRIPOS>MOLECULE
V6Z
   25    25     1     0     0
SMALL
No Charge or Current Charge


@<TRIPOS>ATOM
      1 C7          28.1860    14.1620    37.4270 ca         1 V6Z      -0.091000
      2 C8          29.0850    14.5550    38.4320 ca         1 V6Z      -0.109000
      3 C9          28.6490    15.3600    39.4980 ca         1 V6Z       0.139000
      4 O1          24.6640    14.2510    41.3250 o          1 V6Z      -0.424000
      5 C1          25.6670    13.7650    41.8290 c          1 V6Z       0.570100
      6 C5          26.4070    15.3920    38.5440 ca         1 V6Z      -0.067000
      7 C6          26.8480    14.5860    37.4810 ca         1 V6Z      -0.110000
      8 C4          27.2990    15.7690    39.5700 ca         1 V6Z      -0.142600
      9 C3          26.8010    16.6270    40.6950 c          1 V6Z       0.624700
     10 C2          26.8930    14.6230    42.2670 c3         1 V6Z       0.004000
     11 Cl          29.8280    15.8790    40.7020 cl         1 V6Z      -0.202000
     12 O2          26.4750    17.7910    40.5220 o          1 V6Z      -0.570100
     13 N           26.7230    16.0640    41.9510 ns         1 V6Z      -0.484900
     14 O           25.7660    12.4050    42.0420 os         1 V6Z      -0.447100
     15 C           26.9500    11.8210    42.6270 c3         1 V6Z       0.160900
     16 H1          28.5280    13.5390    36.6020 ha         1 V6Z       0.122000
     17 H2          30.1260    14.2430    38.3820 ha         1 V6Z       0.132000
     18 H3          25.3680    15.7150    38.5810 ha         1 V6Z       0.140000
     19 H4          26.1520    14.2900    36.6990 ha         1 V6Z       0.126000
     20 H5          27.7920    14.2340    41.7770 h1         1 V6Z       0.075700
     21 H6          27.0170    14.5120    43.3520 h1         1 V6Z       0.075700
     22 H7          26.3960    16.6850    42.6830 hn         1 V6Z       0.330500
     23 H8          26.8260    10.7350    42.7220 h1         1 V6Z       0.048700
     24 H9          27.8340    11.9990    42.0010 h1         1 V6Z       0.048700
     25 H10         27.1370    12.2220    43.6320 h1         1 V6Z       0.048700
@<TRIPOS>BOND
     1     1     2 ar  
     2     1     7 ar  
     3     1    16 1   
     4     2     3 ar  
     5     2    17 1   
     6     3     8 ar  
     7     3    11 1   
     8     4     5 2   
     9     5    10 1   
    10     5    14 1   
    11     6     7 ar  
    12     6     8 ar  
    13     6    18 1   
    14     7    19 1   
    15     8     9 1   
    16     9    12 2   
    17     9    13 1   
    18    10    13 1   
    19    10    20 1   
    20    10    21 1   
    21    13    22 1   
    22    14    15 1   
    23    15    23 1   
    24    15    24 1   
    25    15    25 1   
@<TRIPOS>SUBSTRUCTURE
     1 V6Z         1 TEMP              0 ****  ****    0 ROOT
