@<TRIPOS>MOLECULE
V6Z
   25    25     1     0     0
SMALL
abcg2


@<TRIPOS>ATOM
      1 C7          28.2620    14.1880    37.4610 ca         1 V6Z      -0.091000
      2 C8          29.1880    14.7250    38.3470 ca         1 V6Z      -0.109000
      3 C9          28.7380    15.4920    39.4130 ca         1 V6Z       0.139000
      4 O1          24.5400    14.3280    41.5660 o          1 V6Z      -0.424000
      5 C1          25.5720    13.8220    41.9340 c          1 V6Z       0.570100
      6 C5          26.4670    15.1920    38.7100 ca         1 V6Z      -0.067000
      7 C6          26.9030    14.4200    37.6410 ca         1 V6Z      -0.110000
      8 C4          27.3810    15.7360    39.6100 ca         1 V6Z      -0.142600
      9 C3          26.8860    16.6120    40.7300 c          1 V6Z       0.624700
     10 C2          26.8440    14.6170    42.2080 c3         1 V6Z       0.004000
     11 CL          29.9090    16.1540    40.5340 cl         1 V6Z      -0.202000
     12 O2          26.6640    17.8050    40.5380 o          1 V6Z      -0.570100
     13 N           26.6980    16.0220    41.9260 ns         1 V6Z      -0.484900
     14 O           25.6190    12.5000    42.1250 os         1 V6Z      -0.447100
     15 C           26.8390    11.8370    42.5290 c3         1 V6Z       0.160900
     16 H1          28.6090    13.5870    36.6300 ha         1 V6Z       0.122000
     17 H2          30.2470    14.5510    38.2180 ha         1 V6Z       0.132000
     18 H3          25.4110    15.3750    38.8580 ha         1 V6Z       0.140000
     19 H4          26.1820    14.0010    36.9510 ha         1 V6Z       0.126000
     20 H5          27.6630    14.1970    41.6270 h1         1 V6Z       0.075700
     21 H6          27.1140    14.4950    43.2580 h1         1 V6Z       0.075700
     22 H7          26.3120    16.6100    42.6510 hn         1 V6Z       0.330500
     23 H8          26.5710    10.7900    42.6330 h1         1 V6Z       0.048700
     24 H9          27.6050    11.9460    41.7630 h1         1 V6Z       0.048700
     25 H10         27.1930    12.2230    43.4830 h1         1 V6Z       0.048700
@<TRIPOS>BOND
     1     1     2 ar  
     2     1     7 ar  
     3     1    16 1   
     4     2     3 ar  
     5     2    17 1   
     6     3     8 ar  
     7     3    11 1   
     8     4     5 2   
     9     5    10 1   
    10     5    14 1   
    11     6     7 ar  
    12     6     8 ar  
    13     6    18 1   
    14     7    19 1   
    15     8     9 1   
    16     9    12 2   
    17     9    13 1   
    18    10    13 1   
    19    10    20 1   
    20    10    21 1   
    21    13    22 1   
    22    14    15 1   
    23    15    23 1   
    24    15    24 1   
    25    15    25 1   
@<TRIPOS>SUBSTRUCTURE
     1 V6Z         1 TEMP              0 ****  ****    0 ROOT
