@<TRIPOS>MOLECULE
V71
   47    48     1     0     0
SMALL
bcc


@<TRIPOS>ATOM
      1 C1          -0.9140     0.2810    -0.7820 c6         1 V71       0.349900
      2 C10          1.3520    -0.1740    -0.0910 c6         1 V71       0.129100
      3 C11          2.1270     1.1330     0.0740 c6         1 V71       0.097100
      4 C12          3.6250     0.9450    -0.1510 c6         1 V71       0.164100
      5 C2          -1.7930     1.4880    -0.4240 c6         1 V71       0.139500
      6 C3          -2.8150     1.1250     0.6540 c6         1 V71       0.093100
      7 C4          -3.5470    -0.1610     0.2990 c6         1 V71       0.120600
      8 C5          -2.5400    -1.2570     0.0220 c6         1 V71       0.118100
      9 C6          -3.1420    -2.5940    -0.3610 c3         1 V71       0.162800
     10 C7           4.1790    -0.1260     0.7790 c6         1 V71       0.157500
     11 C8           3.3940    -1.4210     0.5660 c6         1 V71      -0.121400
     12 C9           1.8960    -1.2750     0.8060 c6         1 V71       0.174500
     13 F99         -4.3370     0.0510    -0.8300 f          1 V71      -0.230300
     14 N2          -0.9380     2.6120    -0.0610 n8         1 V71      -0.896800
     15 N6          -2.1070    -3.6140    -0.3760 n8         1 V71      -0.897800
     16 N7           5.6120    -0.2760     0.5790 n8         1 V71      -0.852800
     17 N9           1.2380    -2.5360     0.5010 n8         1 V71      -0.898800
     18 O1          -0.0070     0.0630     0.2520 os         1 V71      -0.460600
     19 O11          1.6950     2.1160    -0.8350 oh         1 V71      -0.646800
     20 O12          4.3100     2.1560     0.0580 oh         1 V71      -0.576800
     21 O23         -3.6850     2.2150     0.8140 oh         1 V71      -0.585800
     22 O5          -1.6760    -0.8620    -1.0320 os         1 V71      -0.407600
     23 H1          -0.3920     0.4910    -1.7210 h2         1 V71       0.094700
     24 H2           1.4250    -0.5130    -1.1340 h1         1 V71       0.068700
     25 H3           1.9880     1.4720     1.1150 h1         1 V71       0.040700
     26 H4           3.7720     0.5940    -1.1890 h1         1 V71       0.035700
     27 H5          -2.3350     1.7640    -1.3330 h1         1 V71       0.094700
     28 H6          -2.2710     0.9150     1.5870 h1         1 V71       0.046700
     29 H7          -4.2110    -0.4580     1.1170 h1         1 V71       0.057700
     30 H8          -1.9760    -1.4140     0.9530 h1         1 V71       0.063700
     31 H9          -3.8770    -2.8600     0.4020 h1         1 V71       0.042700
     32 H10         -3.6910    -2.4970    -1.3070 h1         1 V71       0.042700
     33 H11          4.0300     0.2100     1.8130 h1         1 V71       0.069700
     34 H12          3.5580    -1.7760    -0.4580 hc         1 V71       0.050700
     35 H13          3.7930    -2.1950     1.2290 hc         1 V71       0.050700
     36 H14          1.7480    -0.9560     1.8510 h1         1 V71       0.025700
     37 H15         -1.4060     3.4870    -0.2550 hn         1 V71       0.362300
     38 H16         -0.7500     2.6070     0.9350 hn         1 V71       0.362300
     39 H18         -2.5280    -4.5200    -0.5380 hn         1 V71       0.351800
     40 H19         -1.4800    -3.4560    -1.1530 hn         1 V71       0.351800
     41 H21          5.9550    -1.0020     1.1980 hn         1 V71       0.333800
     42 H22          5.7830    -0.6230    -0.3590 hn         1 V71       0.333800
     43 H24          1.5580    -3.2440     1.1500 hn         1 V71       0.352800
     44 H25          0.2380    -2.4670     0.6400 hn         1 V71       0.352800
     45 H27          0.7740     2.3910    -0.6020 ho         1 V71       0.456000
     46 H28          3.8430     2.8320    -0.4470 ho         1 V71       0.417000
     47 H29         -4.1470     2.1220     1.6530 ho         1 V71       0.412000
@<TRIPOS>BOND
     1     1     5 1   
     2     1    18 1   
     3     1    22 1   
     4     1    23 1   
     5     2     3 1   
     6     2    12 1   
     7     2    18 1   
     8     2    24 1   
     9     3     4 1   
    10     3    19 1   
    11     3    25 1   
    12     4    10 1   
    13     4    20 1   
    14     4    26 1   
    15     5     6 1   
    16     5    14 1   
    17     5    27 1   
    18     6     7 1   
    19     6    21 1   
    20     6    28 1   
    21     7     8 1   
    22     7    13 1   
    23     7    29 1   
    24     8     9 1   
    25     8    22 1   
    26     8    30 1   
    27     9    15 1   
    28     9    31 1   
    29     9    32 1   
    30    10    11 1   
    31    10    16 1   
    32    10    33 1   
    33    11    12 1   
    34    11    34 1   
    35    11    35 1   
    36    12    17 1   
    37    12    36 1   
    38    14    37 1   
    39    14    38 1   
    40    15    39 1   
    41    15    40 1   
    42    16    41 1   
    43    16    42 1   
    44    17    43 1   
    45    17    44 1   
    46    19    45 1   
    47    20    46 1   
    48    21    47 1   
@<TRIPOS>SUBSTRUCTURE
     1 V71         1 TEMP              0 ****  ****    0 ROOT
