@<TRIPOS>MOLECULE
V71
   47    48     1     0     0
SMALL
No Charge or Current Charge


@<TRIPOS>ATOM
      1 C1          -0.8580     0.1880    -0.7290 c6         1 V71       0.396300
      2 C10          1.4300    -0.2920     0.0390 c6         1 V71       0.152300
      3 C11          2.1380     1.1100     0.0060 c6         1 V71       0.120300
      4 C12          3.6460     0.9380    -0.3510 c6         1 V71       0.187300
      5 C2          -1.7080     1.4620    -0.3600 c6         1 V71       0.139500
      6 C3          -2.7900     1.1070     0.7120 c6         1 V71       0.116300
      7 C4          -3.6150    -0.1380     0.2650 c6         1 V71       0.139300
      8 C5          -2.6620    -1.3210    -0.0720 c6         1 V71       0.141300
      9 C6          -3.4330    -2.5780    -0.5920 c3         1 V71       0.162800
     10 C7           4.3630     0.0040     0.6900 c6         1 V71       0.157500
     11 C8           3.6550    -1.3730     0.7650 c6         1 V71      -0.121400
     12 C9           2.1470    -1.2150     1.0810 c6         1 V71       0.174500
     13 F99         -4.3710     0.1950    -0.8840 f          1 V71      -0.249000
     14 N2          -0.8760     2.6330     0.1000 n8         1 V71      -1.007200
     15 N6          -2.5720    -3.7570    -0.8680 n8         1 V71      -1.008200
     16 N7           5.8080    -0.2060     0.3930 n8         1 V71      -0.963200
     17 N9           1.5040    -2.5460     1.1500 n8         1 V71      -1.009200
     18 O1           0.0120    -0.2030     0.3580 os         1 V71      -0.507000
     19 O11          1.5250     2.0450    -0.9140 oh         1 V71      -0.769000
     20 O12          4.2420     2.2440    -0.4150 oh         1 V71      -0.639000
     21 O23         -3.6350     2.2490     0.9780 oh         1 V71      -0.648000
     22 O5          -1.6990    -0.9300    -1.0880 os         1 V71      -0.454000
     23 H1          -0.2510     0.4420    -1.6120 h2         1 V71       0.094700
     24 H2           1.5350    -0.7650    -0.9490 h1         1 V71       0.068700
     25 H3           2.0840     1.5260     1.0240 h1         1 V71       0.040700
     26 H4           3.7080     0.4620    -1.3410 h1         1 V71       0.035700
     27 H5          -2.2220     1.7680    -1.2850 h1         1 V71       0.094700
     28 H6          -2.2620     0.8290     1.6370 h1         1 V71       0.046700
     29 H7          -4.3200    -0.4340     1.0540 h1         1 V71       0.057700
     30 H8          -2.1210    -1.6120     0.8400 h1         1 V71       0.063700
     31 H9          -4.1930    -2.8650     0.1490 h1         1 V71       0.042700
     32 H10         -3.9540    -2.3070    -1.5210 h1         1 V71       0.042700
     33 H11          4.2990     0.4780     1.6840 h1         1 V71       0.069700
     34 H12          3.7780    -1.9080    -0.1880 hc         1 V71       0.050700
     35 H13          4.1300    -1.9930     1.5380 hc         1 V71       0.050700
     36 H14          2.0330    -0.7540     2.0740 h1         1 V71       0.025700
     37 H15         -1.4910     3.4600     0.0740 hn         1 V71       0.417500
     38 H16         -0.7390     2.5260     1.1160 hn         1 V71       0.417500
     39 H18         -3.1140    -4.4550    -1.3920 hn         1 V71       0.407000
     40 H19         -1.8450    -3.4650    -1.5330 hn         1 V71       0.407000
     41 H21          6.1660    -0.9550     0.9960 hn         1 V71       0.389000
     42 H22          5.9010    -0.5890    -0.5540 hn         1 V71       0.389000
     43 H24          1.5790    -2.8980     2.1110 hn         1 V71       0.408000
     44 H25          0.4960    -2.3900     1.0300 hn         1 V71       0.408000
     45 H27          0.6200     2.2810    -0.5280 ho         1 V71       0.555000
     46 H28          3.5140     2.8020    -0.7750 ho         1 V71       0.456000
     47 H29         -4.2570     1.9940     1.6960 ho         1 V71       0.451000
@<TRIPOS>BOND
     1     1     5 1   
     2     1    18 1   
     3     1    22 1   
     4     1    23 1   
     5     2     3 1   
     6     2    12 1   
     7     2    18 1   
     8     2    24 1   
     9     3     4 1   
    10     3    19 1   
    11     3    25 1   
    12     4    10 1   
    13     4    20 1   
    14     4    26 1   
    15     5     6 1   
    16     5    14 1   
    17     5    27 1   
    18     6     7 1   
    19     6    21 1   
    20     6    28 1   
    21     7     8 1   
    22     7    13 1   
    23     7    29 1   
    24     8     9 1   
    25     8    22 1   
    26     8    30 1   
    27     9    15 1   
    28     9    31 1   
    29     9    32 1   
    30    10    11 1   
    31    10    16 1   
    32    10    33 1   
    33    11    12 1   
    34    11    34 1   
    35    11    35 1   
    36    12    17 1   
    37    12    36 1   
    38    14    37 1   
    39    14    38 1   
    40    15    39 1   
    41    15    40 1   
    42    16    41 1   
    43    16    42 1   
    44    17    43 1   
    45    17    44 1   
    46    19    45 1   
    47    20    46 1   
    48    21    47 1   
@<TRIPOS>SUBSTRUCTURE
     1 V71         1 TEMP              0 ****  ****    0 ROOT
