@<TRIPOS>MOLECULE
V72
   51    54     1     0     0
SMALL
No Charge or Current Charge


@<TRIPOS>ATOM
      1 N1          20.1190     4.9270    -0.0930 na         1 V72       0.351400
      2 N3          21.6800     7.1870    -0.6370 nc         1 V72      -0.769000
      3 C4          21.3550     6.8740     0.6100 cd         1 V72       0.648300
      4 C5          21.2090     6.3260    -1.6250 cc         1 V72       0.452500
      5 C6          20.4290     5.1850    -1.4130 cd         1 V72      -0.184000
      6 C7          21.5620     6.6490    -2.9790 cc         1 V72      -0.264500
      7 C8          21.2210     5.9610    -4.1100 cd         1 V72      -0.151000
      8 C13         23.7000    10.4810     1.7480 cy         1 V72       0.084700
      9 C17         24.3840    14.3490     2.0900 c3         1 V72      -0.153400
     10 C1          19.3550     4.0600     1.6330 cc         1 V72       0.353500
     11 C11         22.9620     8.4510     1.5990 cy         1 V72       0.179000
     12 C12         23.0210     9.5010     2.7640 cy         1 V72      -0.103400
     13 C14         22.9010     9.7040     0.6500 cy         1 V72      -0.103400
     14 C18         25.6390    15.2520     2.1110 c3         1 V72      -0.077100
     15 C19         24.1750     7.4980     1.4830 c3         1 V72      -0.105100
     16 C2          20.0800     5.2060     2.0480 cc         1 V72      -0.337600
     17 C3          20.5620     5.7420     0.8900 cd         1 V72      -0.178000
     18 C9          22.3330     7.7450    -3.3890 cc         1 V72       0.283900
     19 N2          19.3560     3.8550     0.3180 nd         1 V72      -0.566100
     20 N4          21.8120     6.6910    -5.1470 na         1 V72       0.136800
     21 N5          22.5080     7.8070    -4.6950 nd         1 V72      -0.528800
     22 N6          23.5390    11.9410     1.8990 n          1 V72      -0.400800
     23 O1          21.7580     7.6690     1.6530 os         1 V72      -0.447300
     24 O2          25.7910    12.4050     1.8510 o          1 V72      -0.598100
     25 H3          20.0550     4.5070    -2.1630 h4         1 V72       0.164000
     26 H4          20.6390     5.0600    -4.2750 h4         1 V72       0.154000
     27 H6          21.2770     7.2060    -7.1180 h1         1 V72       0.058367
     28 H8          22.7640     6.2210    -6.9660 h1         1 V72       0.058367
     29 H7          21.1610     5.4630    -6.7340 h1         1 V72       0.058367
     30 H11         24.7690    10.2530     1.6630 h1         1 V72       0.099700
     31 H14         21.9480    13.1580     1.1850 h1         1 V72       0.039033
     32 H15         21.4130    11.6650     1.9840 h1         1 V72       0.039033
     33 H16         22.0380    13.0030     2.9670 h1         1 V72       0.039033
     34 H18         23.6900    14.6590     1.3010 hc         1 V72       0.056200
     35 H17         23.7740    14.5030     2.9870 hc         1 V72       0.056200
     36 H1          18.8210     3.3630     2.2670 h4         1 V72       0.047800
     37 H10         22.0380     9.8170     3.1300 hc         1 V72       0.069700
     38 H9          23.6300     9.2200     3.6290 hc         1 V72       0.069700
     39 H13         21.8870    10.0710     0.4600 hc         1 V72       0.069700
     40 H12         23.4100     9.5960    -0.3130 hc         1 V72       0.069700
     41 H21         25.3500    16.3050     2.2220 hc         1 V72       0.042033
     42 H20         26.2940    14.9880     2.9500 hc         1 V72       0.042033
     43 H19         26.2080    15.1500     1.1790 hc         1 V72       0.042033
     44 H23         25.1260     8.0230     1.6290 hc         1 V72       0.053033
     45 H24         24.1230     6.7060     2.2400 hc         1 V72       0.053033
     46 H22         24.2190     7.0200     0.4980 hc         1 V72       0.053033
     47 H2          20.2070     5.5540     3.0700 ha         1 V72       0.225000
     48 H5          22.7780     8.5120    -2.7670 h4         1 V72       0.051100
     49 C10         21.7490     6.3750    -6.5810 c3         1 V72       0.071900
     50 C16         24.6450    12.8320     1.9370 c          1 V72       0.605100
     51 C15         22.1550    12.4710     2.0150 c3         1 V72       0.086300
@<TRIPOS>BOND
     1     1     5 1   
     2     1    17 1   
     3     1    19 1   
     4     2     3 2   
     5     2     4 1   
     6     3    17 1   
     7     3    23 1   
     8     4     5 2   
     9     4     6 1   
    10     5    25 1   
    11     6     7 2   
    12     6    18 1   
    13     7    20 1   
    14     7    26 1   
    15     8    12 1   
    16     8    13 1   
    17     8    22 1   
    18     8    30 1   
    19     9    14 1   
    20     9    34 1   
    21     9    35 1   
    22     9    50 1   
    23    10    16 1   
    24    10    19 2   
    25    10    36 1   
    26    11    12 1   
    27    11    13 1   
    28    11    15 1   
    29    11    23 1   
    30    12    37 1   
    31    12    38 1   
    32    13    39 1   
    33    13    40 1   
    34    14    41 1   
    35    14    42 1   
    36    14    43 1   
    37    15    44 1   
    38    15    45 1   
    39    15    46 1   
    40    16    17 2   
    41    16    47 1   
    42    18    21 2   
    43    18    48 1   
    44    20    21 1   
    45    20    49 1   
    46    22    50 1   
    47    22    51 1   
    48    24    50 2   
    49    27    49 1   
    50    28    49 1   
    51    29    49 1   
    52    31    51 1   
    53    32    51 1   
    54    33    51 1   
@<TRIPOS>SUBSTRUCTURE
     1 V72         1 TEMP              0 ****  ****    0 ROOT
