@<TRIPOS>MOLECULE
V72
   51    54     1     0     0
SMALL
abcg2


@<TRIPOS>ATOM
      1 N1          19.8320     5.4240     0.0420 na         1 V72       0.351400
      2 N3          21.9440     7.0380    -0.5360 nc         1 V72      -0.769000
      3 C4          21.5750     6.8890     0.6920 cd         1 V72       0.648300
      4 C5          21.2570     6.3910    -1.5290 cc         1 V72       0.452500
      5 C6          20.2000     5.5780    -1.2660 cd         1 V72      -0.184000
      6 C7          21.7270     6.6420    -2.8840 cc         1 V72      -0.264500
      7 C8          21.2550     6.1410    -4.0830 cd         1 V72      -0.151000
      8 C13         23.8850    10.3660     1.5990 cy         1 V72       0.084700
      9 C17         23.9210    14.1360     2.0120 c3         1 V72      -0.153400
     10 C1          18.8340     4.8150     1.7910 cc         1 V72       0.353500
     11 C11         23.3280     8.3120     1.4870 cy         1 V72       0.179000
     12 C12         23.5120     9.3020     2.6490 cy         1 V72      -0.103400
     13 C14         23.1820     9.5100     0.5290 cy         1 V72      -0.103400
     14 C18         25.0350    15.1670     2.0180 c3         1 V72      -0.077100
     15 C19         24.5480     7.4500     1.2330 c3         1 V72      -0.105100
     16 C2          19.8380     5.6740     2.2320 cc         1 V72      -0.337600
     17 C3          20.4780     6.0590     1.0640 cd         1 V72      -0.178000
     18 C9          22.7850     7.4870    -3.2700 cc         1 V72       0.283900
     19 N2          18.8340     4.6670     0.4670 nd         1 V72      -0.566100
     20 N4          22.0090     6.6770    -5.0530 na         1 V72       0.136800
     21 N5          22.9420     7.4980    -4.5800 nd         1 V72      -0.528800
     22 N6          23.4810    11.7380     1.7940 n          1 V72      -0.400800
     23 O1          22.1730     7.4950     1.7030 os         1 V72      -0.447300
     24 O2          25.5830    12.5100     1.4590 o          1 V72      -0.598100
     25 H3          19.6200     5.0410    -2.0000 h4         1 V72       0.164000
     26 H4          20.4530     5.4550    -4.3080 h4         1 V72       0.154000
     27 H6          21.6110     7.3930    -6.9750 h1         1 V72       0.058367
     28 H8          22.8260     6.1030    -6.8840 h1         1 V72       0.058367
     29 H7          21.1130     5.7240    -6.6570 h1         1 V72       0.058367
     30 H11         24.9580    10.3660     1.4310 h1         1 V72       0.099700
     31 H14         21.7160    12.8840     1.6640 h1         1 V72       0.039033
     32 H15         21.4750    11.1700     1.8620 h1         1 V72       0.039033
     33 H16         21.9830    12.1360     3.2430 h1         1 V72       0.039033
     34 H18         23.1720    14.4060     1.2600 hc         1 V72       0.056200
     35 H17         23.3880    14.1510     2.9660 hc         1 V72       0.056200
     36 H1          18.1020     4.2910     2.3860 h4         1 V72       0.047800
     37 H10         22.5560     9.5170     3.1280 hc         1 V72       0.069700
     38 H9          24.2500     9.0580     3.4130 hc         1 V72       0.069700
     39 H13         22.1370     9.7910     0.3930 hc         1 V72       0.069700
     40 H12         23.6540     9.4360    -0.4500 hc         1 V72       0.069700
     41 H21         24.6210    16.1540     2.2200 hc         1 V72       0.042033
     42 H20         25.7780    14.9560     2.7860 hc         1 V72       0.042033
     43 H19         25.5490    15.2130     1.0580 hc         1 V72       0.042033
     44 H23         25.4440     8.0690     1.1850 hc         1 V72       0.053033
     45 H24         24.6890     6.7310     2.0420 hc         1 V72       0.053033
     46 H22         24.4730     6.9080     0.2910 hc         1 V72       0.053033
     47 H2          20.0670     5.9710     3.2410 ha         1 V72       0.225000
     48 H5          23.4270     8.0790    -2.6360 h4         1 V72       0.051100
     49 C10         21.8850     6.4660    -6.4760 c3         1 V72       0.071900
     50 C16         24.4110    12.7280     1.7320 c          1 V72       0.605100
     51 C15         22.1050    12.0020     2.1660 c3         1 V72       0.086300
@<TRIPOS>BOND
     1     1     5 1   
     2     1    17 1   
     3     1    19 1   
     4     2     3 2   
     5     2     4 1   
     6     3    17 1   
     7     3    23 1   
     8     4     5 2   
     9     4     6 1   
    10     5    25 1   
    11     6     7 2   
    12     6    18 1   
    13     7    20 1   
    14     7    26 1   
    15     8    12 1   
    16     8    13 1   
    17     8    22 1   
    18     8    30 1   
    19     9    14 1   
    20     9    34 1   
    21     9    35 1   
    22     9    50 1   
    23    10    16 1   
    24    10    19 2   
    25    10    36 1   
    26    11    12 1   
    27    11    13 1   
    28    11    15 1   
    29    11    23 1   
    30    12    37 1   
    31    12    38 1   
    32    13    39 1   
    33    13    40 1   
    34    14    41 1   
    35    14    42 1   
    36    14    43 1   
    37    15    44 1   
    38    15    45 1   
    39    15    46 1   
    40    16    17 2   
    41    16    47 1   
    42    18    21 2   
    43    18    48 1   
    44    20    21 1   
    45    20    49 1   
    46    22    50 1   
    47    22    51 1   
    48    24    50 2   
    49    27    49 1   
    50    28    49 1   
    51    29    49 1   
    52    31    51 1   
    53    32    51 1   
    54    33    51 1   
@<TRIPOS>SUBSTRUCTURE
     1 V72         1 TEMP              0 ****  ****    0 ROOT
