@<TRIPOS>MOLECULE
V73
   29    29     1     0     0
SMALL
abcg2


@<TRIPOS>ATOM
      1 C7          29.5060    15.3290    37.4610 ca         1 V73      -0.111500
      2 C8          28.4480    14.6880    36.8210 ca         1 V73      -0.111000
      3 C9          27.1680    14.7750    37.3590 ca         1 V73      -0.111500
      4 O1          29.6390    17.4920    41.8140 o          1 V73      -0.604100
      5 C1          29.7790    15.0480    43.0850 c3         1 V73       0.093000
      6 C5          28.0020    16.1410    39.1760 ca         1 V73      -0.083300
      7 C6          29.2830    16.0500    38.6270 ca         1 V73      -0.102500
      8 C4          27.7620    16.9340    40.4430 c3         1 V73      -0.109100
      9 C3          28.7900    16.6400    41.5290 c          1 V73       0.608100
     10 C2          30.7260    13.9880    42.5500 c3         1 V73       0.141600
     11 N           28.7410    15.4290    42.1310 n          1 V73      -0.405800
     12 O           31.4510    14.5270    41.4430 oh         1 V73      -0.654000
     13 C           27.7630    14.4000    41.8000 c3         1 V73       0.094300
     14 C10         26.9500    15.4950    38.5300 ca         1 V73      -0.102500
     15 H1          30.5060    15.2660    37.0500 ha         1 V73       0.112500
     16 H2          28.6200    14.1240    35.9130 ha         1 V73       0.112000
     17 H3          26.3380    14.2780    36.8710 ha         1 V73       0.112500
     18 H4          30.3360    15.9430    43.3480 h1         1 V73       0.069700
     19 H5          29.3000    14.6590    43.9870 h1         1 V73       0.069700
     20 H6          30.1120    16.5420    39.1200 ha         1 V73       0.120000
     21 H7          27.8480    18.0010    40.2370 hc         1 V73       0.071700
     22 H8          26.7500    16.7530    40.8050 hc         1 V73       0.071700
     23 H9          30.1720    13.0960    42.2440 h1         1 V73       0.023200
     24 H10         31.4080    13.7010    43.3580 h1         1 V73       0.023200
     25 H11         31.8860    13.8010    40.9800 ho         1 V73       0.439000
     26 H12         27.6320    13.7600    42.6720 h1         1 V73       0.038700
     27 H13         26.8000    14.8390    41.5580 h1         1 V73       0.038700
     28 H14         28.0880    13.7820    40.9610 h1         1 V73       0.038700
     29 H15         25.9530    15.5500    38.9510 ha         1 V73       0.120000
@<TRIPOS>BOND
     1     1     2 ar  
     2     1     7 ar  
     3     1    15 1   
     4     2     3 ar  
     5     2    16 1   
     6     3    14 ar  
     7     3    17 1   
     8     4     9 2   
     9     5    10 1   
    10     5    11 1   
    11     5    18 1   
    12     5    19 1   
    13     6     7 ar  
    14     6     8 1   
    15     6    14 ar  
    16     7    20 1   
    17     8     9 1   
    18     8    21 1   
    19     8    22 1   
    20     9    11 1   
    21    10    12 1   
    22    10    23 1   
    23    10    24 1   
    24    11    13 1   
    25    12    25 1   
    26    13    26 1   
    27    13    27 1   
    28    13    28 1   
    29    14    29 1   
@<TRIPOS>SUBSTRUCTURE
     1 V73         1 TEMP              0 ****  ****    0 ROOT
