@<TRIPOS>MOLECULE
V73
   29    29     1     0     0
SMALL
No Charge or Current Charge


@<TRIPOS>ATOM
      1 C7          29.3650    15.9590    36.9070 ca         1 V73      -0.111500
      2 C8          28.5180    14.9260    36.4740 ca         1 V73      -0.111000
      3 C9          27.4460    14.5140    37.2830 ca         1 V73      -0.111500
      4 O1          29.9900    17.1440    41.3220 o          1 V73      -0.604100
      5 C1          29.8290    15.0570    43.2170 c3         1 V73       0.093000
      6 C5          28.0710    16.1670    38.9690 ca         1 V73      -0.083300
      7 C6          29.1410    16.5780    38.1490 ca         1 V73      -0.102500
      8 C4          27.8320    16.8440    40.3170 c3         1 V73      -0.109100
      9 C3          28.9490    16.4950    41.3270 c          1 V73       0.608100
     10 C2          30.6110    13.7670    42.8590 c3         1 V73       0.141600
     11 N           28.7650    15.4250    42.2420 n          1 V73      -0.405800
     12 O           31.3120    13.9080    41.6130 oh         1 V73      -0.654000
     13 C           27.5470    14.5840    42.2360 c3         1 V73       0.094300
     14 C10         27.2220    15.1330    38.5250 ca         1 V73      -0.102500
     15 H1          30.1940    16.2810    36.2810 ha         1 V73       0.112500
     16 H2          28.6900    14.4470    35.5120 ha         1 V73       0.112000
     17 H3          26.7870    13.7160    36.9470 ha         1 V73       0.112500
     18 H4          30.5440    15.8820    43.3360 h1         1 V73       0.069700
     19 H5          29.3600    14.9120    44.1990 h1         1 V73       0.069700
     20 H6          29.8020    17.3790    38.4750 ha         1 V73       0.120000
     21 H7          27.8310    17.9300    40.1680 hc         1 V73       0.071700
     22 H8          26.8520    16.5440    40.6990 hc         1 V73       0.071700
     23 H9          29.9090    12.9240    42.8060 h1         1 V73       0.023200
     24 H10         31.3230    13.5520    43.6680 h1         1 V73       0.023200
     25 H11         31.7670    13.0540    41.4410 ho         1 V73       0.439000
     26 H12         27.6400    13.7690    42.9650 h1         1 V73       0.038700
     27 H13         26.6720    15.1900    42.5050 h1         1 V73       0.038700
     28 H14         27.4010    14.1460    41.2410 h1         1 V73       0.038700
     29 H15         26.3850    14.8070    39.1390 ha         1 V73       0.120000
@<TRIPOS>BOND
     1     1     2 ar  
     2     1     7 ar  
     3     1    15 1   
     4     2     3 ar  
     5     2    16 1   
     6     3    14 ar  
     7     3    17 1   
     8     4     9 2   
     9     5    10 1   
    10     5    11 1   
    11     5    18 1   
    12     5    19 1   
    13     6     7 ar  
    14     6     8 1   
    15     6    14 ar  
    16     7    20 1   
    17     8     9 1   
    18     8    21 1   
    19     8    22 1   
    20     9    11 1   
    21    10    12 1   
    22    10    23 1   
    23    10    24 1   
    24    11    13 1   
    25    12    25 1   
    26    13    26 1   
    27    13    27 1   
    28    13    28 1   
    29    14    29 1   
@<TRIPOS>SUBSTRUCTURE
     1 V73         1 TEMP              0 ****  ****    0 ROOT
