@<TRIPOS>MOLECULE
V74
   58    62     1     0     0
SMALL
No Charge or Current Charge


@<TRIPOS>ATOM
      1 C21        -48.9850    -8.4880    34.2020 ca         1 V74      -0.095000
      2 C18        -51.3100    -7.2590    33.2110 ca         1 V74      -0.140000
      3 C16        -49.7690    -5.6100    30.4490 c3         1 V74       0.207900
      4 C19        -51.3540    -8.5940    33.6480 ca         1 V74       0.138100
      5 C26        -53.1910   -10.9000    36.8260 ca         1 V74      -0.076000
      6 C14        -47.0170    -6.1620    27.8400 ca         1 V74      -0.131000
      7 C12        -48.8050    -5.3780    29.2940 ca         1 V74      -0.092300
      8 C17        -50.1080    -6.5260    33.2760 ca         1 V74      -0.105300
      9 C22        -48.9470    -7.1490    33.7760 ca         1 V74      -0.123000
     10 C27        -53.8650   -12.0760    36.4200 ca         1 V74      -0.144600
     11 C25        -52.7430    -9.9650    35.8760 ca         1 V74      -0.163000
     12 C24        -52.9560   -10.1940    34.5050 ca         1 V74       0.071100
     13 C29        -53.6350   -11.3490    34.0900 ca         1 V74      -0.163000
     14 C28        -54.0840   -12.2860    35.0370 ca         1 V74      -0.076000
     15 C01        -44.6830     0.0240    26.0550 ca         1 V74      -0.128000
     16 C02        -46.0450     0.3490    25.8850 ca         1 V74      -0.130000
     17 C03        -46.9960    -0.6340    26.1860 ca         1 V74      -0.070200
     18 C04        -46.6420    -1.8790    26.6260 ca         1 V74      -0.084800
     19 C05        -45.2930    -2.2220    26.8300 ca         1 V74      -0.069000
     20 C06        -44.3100    -1.2540    26.5310 ca         1 V74      -0.166000
     21 C08        -48.9740    -1.7490    26.5500 cc         1 V74      -0.064300
     22 C09        -47.8900    -2.5980    26.8450 cd         1 V74      -0.132400
     23 C10        -47.9150    -3.9050    27.5430 ca         1 V74       0.042200
     24 C11        -48.8010    -4.1440    28.6150 ca         1 V74      -0.041000
     25 C13        -47.9070    -6.3880    28.9010 ca         1 V74      -0.130000
     26 C15        -47.0190    -4.9280    27.1690 ca         1 V74      -0.118000
     27 C20        -50.1870    -9.2130    34.1350 ca         1 V74      -0.164000
     28 C37        -50.0590    -5.0750    32.8030 c3         1 V74       0.205900
     29 N07        -48.3720    -0.5400    26.1350 na         1 V74      -0.196700
     30 O23        -52.5420    -9.2860    33.5560 os         1 V74      -0.265200
     31 O31        -54.9290   -14.0910    37.0520 o          1 V74      -0.723500
     32 O32        -54.1430   -12.8670    38.6310 o          1 V74      -0.723500
     33 O34        -51.2080    -1.1350    26.3100 o          1 V74      -0.703500
     34 O35        -50.8450    -3.1890    26.7790 o          1 V74      -0.703500
     35 O36        -49.2370    -4.9710    31.6240 os         1 V74      -0.438000
     36 H1         -48.0820    -8.9640    34.5800 ha         1 V74       0.105000
     37 H2         -52.2140    -6.7960    32.8240 ha         1 V74       0.119000
     38 H3         -50.7510    -5.1910    30.1930 h1         1 V74       0.025700
     39 H4         -49.8930    -6.6890    30.6100 h1         1 V74       0.025700
     40 H5         -53.0130   -10.7050    37.8820 ha         1 V74       0.127500
     41 H6         -46.3260    -6.9450    27.5350 ha         1 V74       0.088000
     42 H7         -48.0120    -6.5940    33.8270 ha         1 V74       0.126000
     43 H8         -52.2370    -9.0630    36.2100 ha         1 V74       0.103500
     44 H9         -53.8120   -11.5210    33.0310 ha         1 V74       0.103500
     45 H10        -54.6040   -13.1770    34.6910 ha         1 V74       0.127500
     46 H11        -43.9180     0.7640    25.8310 ha         1 V74       0.084000
     47 H12        -46.3450     1.3340    25.5360 ha         1 V74       0.096000
     48 H13        -44.9990    -3.1920    27.2200 ha         1 V74       0.107000
     49 H14        -43.2590    -1.4920    26.6740 ha         1 V74       0.087000
     50 H15        -49.4710    -3.3560    28.9470 ha         1 V74       0.141000
     51 H16        -47.8980    -7.3440    29.4190 ha         1 V74       0.091000
     52 H17        -46.3430    -4.7800    26.3320 ha         1 V74       0.103000
     53 H18        -50.2090   -10.2510    34.4550 ha         1 V74       0.132000
     54 H19        -49.6390    -4.4560    33.6070 h1         1 V74       0.048200
     55 H20        -51.0730    -4.7050    32.6020 h1         1 V74       0.048200
     56 H21        -48.8880     0.2790    25.8320 hn         1 V74       0.364000
     57 C33        -50.4430    -2.0540    26.5730 c          1 V74       0.725200
     58 C30        -54.3500   -13.0890    37.4460 c          1 V74       0.715600
@<TRIPOS>BOND
     1     1     9 ar  
     2     1    27 ar  
     3     1    36 1   
     4     2     4 ar  
     5     2     8 ar  
     6     2    37 1   
     7     3     7 1   
     8     3    35 1   
     9     3    38 1   
    10     3    39 1   
    11     4    27 ar  
    12     4    30 1   
    13     5    10 ar  
    14     5    11 ar  
    15     5    40 1   
    16     6    25 ar  
    17     6    26 ar  
    18     6    41 1   
    19     7    24 ar  
    20     7    25 ar  
    21     8     9 ar  
    22     8    28 1   
    23     9    42 1   
    24    10    14 ar  
    25    10    58 1   
    26    11    12 ar  
    27    11    43 1   
    28    12    13 ar  
    29    12    30 1   
    30    13    14 ar  
    31    13    44 1   
    32    14    45 1   
    33    15    16 ar  
    34    15    20 ar  
    35    15    46 1   
    36    16    17 ar  
    37    16    47 1   
    38    17    18 ar  
    39    17    29 1   
    40    18    19 ar  
    41    18    22 1   
    42    19    20 ar  
    43    19    48 1   
    44    20    49 1   
    45    21    22 2   
    46    21    29 1   
    47    21    57 1   
    48    22    23 1   
    49    23    24 ar  
    50    23    26 ar  
    51    24    50 1   
    52    25    51 1   
    53    26    52 1   
    54    27    53 1   
    55    28    35 1   
    56    28    54 1   
    57    28    55 1   
    58    29    56 1   
    59    31    58 1   
    60    32    58 1   
    61    33    57 1   
    62    34    57 1   
@<TRIPOS>SUBSTRUCTURE
     1 V74         1 TEMP              0 ****  ****    0 ROOT
