@<TRIPOS>MOLECULE
V74
   58    62     1     0     0
SMALL
bcc


@<TRIPOS>ATOM
      1 C21        -49.5290    -7.7950    33.3860 ca         1 V74      -0.113000
      2 C18        -52.1670    -7.5430    32.5990 ca         1 V74      -0.158000
      3 C16        -50.6930    -5.9680    29.3540 c3         1 V74       0.184700
      4 C19        -51.7710    -8.6280    33.3730 ca         1 V74       0.138100
      5 C26        -52.4450   -10.4030    37.2090 ca         1 V74      -0.094000
      6 C14        -48.3110    -6.0790    26.4290 ca         1 V74      -0.149000
      7 C12        -49.6800    -5.5290    28.3340 ca         1 V74      -0.092300
      8 C17        -51.2440    -6.5790    32.2190 ca         1 V74      -0.105300
      9 C22        -49.9160    -6.7060    32.6210 ca         1 V74      -0.141000
     10 C27        -52.5740   -11.7900    37.1700 ca         1 V74      -0.144600
     11 C25        -52.4840    -9.6390    36.0540 ca         1 V74      -0.181000
     12 C24        -52.6440   -10.2710    34.8270 ca         1 V74       0.071100
     13 C29        -52.7790   -11.6490    34.7600 ca         1 V74      -0.181000
     14 C28        -52.7500   -12.3950    35.9300 ca         1 V74      -0.094000
     15 C01        -43.7980    -0.9710    27.5430 ca         1 V74      -0.146000
     16 C02        -44.9160    -0.1630    27.4980 ca         1 V74      -0.148000
     17 C03        -46.1620    -0.7880    27.4270 ca         1 V74      -0.070200
     18 C04        -46.2970    -2.1940    27.3920 ca         1 V74      -0.084800
     19 C05        -45.1440    -2.9880    27.4510 ca         1 V74      -0.087000
     20 C06        -43.9100    -2.3730    27.5230 ca         1 V74      -0.184000
     21 C08        -48.3490    -1.2630    27.3210 cc         1 V74      -0.064300
     22 C09        -47.7010    -2.4800    27.3260 cd         1 V74      -0.132400
     23 C10        -48.2600    -3.8370    27.3260 ca         1 V74       0.042200
     24 C11        -49.1920    -4.2310    28.2900 ca         1 V74      -0.059000
     25 C13        -49.2320    -6.4550    27.3920 ca         1 V74      -0.148000
     26 C15        -47.8230    -4.7780    26.3970 ca         1 V74      -0.136000
     27 C20        -50.4460    -8.7650    33.7680 ca         1 V74      -0.182000
     28 C37        -51.6860    -5.3890    31.4020 c3         1 V74       0.182700
     29 N07        -47.4140    -0.2660    27.3840 na         1 V74      -0.146400
     30 O23        -52.7270    -9.5560    33.6610 os         1 V74      -0.265200
     31 O31        -52.6680   -13.8460    38.3260 o          1 V74      -0.828800
     32 O32        -52.3290   -11.9830    39.5070 o          1 V74      -0.828800
     33 O34        -50.0330     0.3450    27.3360 o          1 V74      -0.808800
     34 O35        -50.6170    -1.7820    26.9590 o          1 V74      -0.808800
     35 O36        -50.7660    -5.0360    30.4020 os         1 V74      -0.391600
     36 H1         -48.4950    -7.8980    33.6910 ha         1 V74       0.123000
     37 H2         -53.2020    -7.4610    32.2890 ha         1 V74       0.137000
     38 H3         -51.6770    -6.0780    28.8740 h1         1 V74       0.025700
     39 H4         -50.4190    -6.9650    29.7250 h1         1 V74       0.025700
     40 H5         -52.3160    -9.9090    38.1630 ha         1 V74       0.145500
     41 H6         -47.9670    -6.8010    25.7000 ha         1 V74       0.106000
     42 H7         -49.1840    -5.9630    32.3320 ha         1 V74       0.144000
     43 H8         -52.3910    -8.5610    36.1100 ha         1 V74       0.121500
     44 H9         -52.9080   -12.1330    33.7990 ha         1 V74       0.121500
     45 H10        -52.8550   -13.4700    35.8730 ha         1 V74       0.145500
     46 H11        -42.8160    -0.5190    27.5980 ha         1 V74       0.102000
     47 H12        -44.8300     0.9170    27.5210 ha         1 V74       0.114000
     48 H13        -45.2190    -4.0680    27.4410 ha         1 V74       0.125000
     49 H14        -43.0120    -2.9760    27.5660 ha         1 V74       0.105000
     50 H15        -49.5170    -3.5040    29.0190 ha         1 V74       0.159000
     51 H16        -49.6000    -7.4740    27.4200 ha         1 V74       0.109000
     52 H17        -47.1050    -4.4930    25.6370 ha         1 V74       0.121000
     53 H18        -50.1230    -9.6140    34.3560 ha         1 V74       0.150000
     54 H19        -51.7800    -4.5140    32.0500 h1         1 V74       0.048200
     55 H20        -52.6800    -5.5830    30.9770 h1         1 V74       0.048200
     56 H21        -47.6630     0.7100    27.3790 hn         1 V74       0.313700
     57 C33        -49.8060    -0.8740    27.1980 c          1 V74       0.935800
     58 C30        -52.5200   -12.6150    38.4510 c          1 V74       0.926200
@<TRIPOS>BOND
     1     1     9 ar  
     2     1    27 ar  
     3     1    36 1   
     4     2     4 ar  
     5     2     8 ar  
     6     2    37 1   
     7     3     7 1   
     8     3    35 1   
     9     3    38 1   
    10     3    39 1   
    11     4    27 ar  
    12     4    30 1   
    13     5    10 ar  
    14     5    11 ar  
    15     5    40 1   
    16     6    25 ar  
    17     6    26 ar  
    18     6    41 1   
    19     7    24 ar  
    20     7    25 ar  
    21     8     9 ar  
    22     8    28 1   
    23     9    42 1   
    24    10    14 ar  
    25    10    58 1   
    26    11    12 ar  
    27    11    43 1   
    28    12    13 ar  
    29    12    30 1   
    30    13    14 ar  
    31    13    44 1   
    32    14    45 1   
    33    15    16 ar  
    34    15    20 ar  
    35    15    46 1   
    36    16    17 ar  
    37    16    47 1   
    38    17    18 ar  
    39    17    29 1   
    40    18    19 ar  
    41    18    22 1   
    42    19    20 ar  
    43    19    48 1   
    44    20    49 1   
    45    21    22 2   
    46    21    29 1   
    47    21    57 1   
    48    22    23 1   
    49    23    24 ar  
    50    23    26 ar  
    51    24    50 1   
    52    25    51 1   
    53    26    52 1   
    54    27    53 1   
    55    28    35 1   
    56    28    54 1   
    57    28    55 1   
    58    29    56 1   
    59    31    58 1   
    60    32    58 1   
    61    33    57 1   
    62    34    57 1   
@<TRIPOS>SUBSTRUCTURE
     1 V74         1 TEMP              0 ****  ****    0 ROOT
