@<TRIPOS>MOLECULE
V75
   31    31     1     0     0
SMALL
abcg2


@<TRIPOS>ATOM
      1 C6         164.5520   191.0480   266.0000 c          1 V75       0.746000
      2 C5         164.3710   192.4430   266.6490 c6         1 V75       0.017300
      3 C1         163.9140   194.6730   266.1070 c6         1 V75       0.151600
      4 C2         162.8420   194.8090   267.1860 c6         1 V75       0.118300
      5 C3         163.1300   193.8260   268.3120 c6         1 V75       0.107300
      6 O3         162.0380   193.7720   269.2340 os         1 V75      -0.452100
      7 C4         163.3040   192.4190   267.7410 c6         1 V75       0.153300
      8 O4         163.7200   191.5100   268.7260 oh         1 V75      -0.689000
      9 C2B        162.1390   198.2050   268.4510 c3         1 V75      -0.158100
     10 C3A        162.0460   194.5160   270.3420 c          1 V75       0.602100
     11 C3B        160.7990   194.2910   271.1430 c3         1 V75      -0.159100
     12 O2         162.9180   196.1550   267.6520 os         1 V75      -0.450100
     13 O2B        160.7070   196.3340   267.9770 o          1 V75      -0.498000
     14 O3B        162.9360   195.2690   270.6420 o          1 V75      -0.502000
     15 O5         163.9790   193.3550   265.6390 os         1 V75      -0.409000
     16 O6A        165.6860   190.5450   266.0850 o          1 V75      -0.707500
     17 O6B        163.5420   190.5710   265.4530 o          1 V75      -0.707500
     18 H1         165.3250   192.7700   267.0920 h1         1 V75       0.037700
     19 H2         164.8830   195.0000   266.5110 h1         1 V75       0.041700
     20 H3         163.6670   195.3160   265.2600 h1         1 V75       0.041700
     21 H4         161.8580   194.6040   266.7570 h1         1 V75       0.085700
     22 H5         164.0500   194.1200   268.8280 h1         1 V75       0.081700
     23 H6         162.3580   192.1070   267.2780 h1         1 V75       0.070700
     24 H7         162.9730   191.3060   269.2980 ho         1 V75       0.488000
     25 H8         161.2290   198.7600   268.6600 hc         1 V75       0.064700
     26 H9         162.7480   198.1720   269.3560 hc         1 V75       0.064700
     27 H10        162.7170   198.7310   267.6920 hc         1 V75       0.064700
     28 H11        160.8400   194.8480   272.0740 hc         1 V75       0.064367
     29 H12        159.9280   194.6180   270.5720 hc         1 V75       0.064367
     30 H13        160.6620   193.2320   271.3610 hc         1 V75       0.064367
     31 C2A        161.8110   196.8120   268.0060 c          1 V75       0.602100
@<TRIPOS>BOND
     1     1     2 1   
     2     1    16 1   
     3     1    17 1   
     4     2     7 1   
     5     2    15 1   
     6     2    18 1   
     7     3     4 1   
     8     3    15 1   
     9     3    19 1   
    10     3    20 1   
    11     4     5 1   
    12     4    12 1   
    13     4    21 1   
    14     5     6 1   
    15     5     7 1   
    16     5    22 1   
    17     6    10 1   
    18     7     8 1   
    19     7    23 1   
    20     8    24 1   
    21     9    25 1   
    22     9    26 1   
    23     9    27 1   
    24     9    31 1   
    25    10    11 1   
    26    10    14 2   
    27    11    28 1   
    28    11    29 1   
    29    11    30 1   
    30    12    31 1   
    31    13    31 2   
@<TRIPOS>SUBSTRUCTURE
     1 V75         1 TEMP              0 ****  ****    0 ROOT
