@<TRIPOS>MOLECULE
V75
   31    31     1     0     0
SMALL
No Charge or Current Charge


@<TRIPOS>ATOM
      1 C6         164.5410   190.8790   266.0050 c          1 V75       0.746000
      2 C5         164.3690   192.3240   266.5870 c6         1 V75       0.017300
      3 C1         163.9990   194.6820   266.0730 c6         1 V75       0.151600
      4 C2         162.8790   194.8250   267.1400 c6         1 V75       0.118300
      5 C3         163.1220   193.7770   268.2780 c6         1 V75       0.107300
      6 O3         162.0730   193.7610   269.2820 os         1 V75      -0.452100
      7 C4         163.2540   192.3490   267.6680 c6         1 V75       0.153300
      8 O4         163.4940   191.3870   268.7090 oh         1 V75      -0.689000
      9 C2B        161.9740   198.1960   268.5730 c3         1 V75      -0.158100
     10 C3A        162.1040   194.6010   270.3660 c          1 V75       0.602100
     11 C3B        160.8580   194.4500   271.2250 c3         1 V75      -0.159100
     12 O2         162.8700   196.1900   267.6240 os         1 V75      -0.450100
     13 O2B        160.6090   196.2670   268.0330 o          1 V75      -0.498000
     14 O3B        163.0190   195.3690   270.6270 o          1 V75      -0.502000
     15 O5         164.0590   193.3290   265.5710 os         1 V75      -0.409000
     16 O6A        165.6050   190.3310   266.2690 o          1 V75      -0.707500
     17 O6B        164.0080   190.6520   264.9230 o          1 V75      -0.707500
     18 H1         165.3250   192.5970   267.0570 h1         1 V75       0.037700
     19 H2         164.9730   194.9500   266.5060 h1         1 V75       0.041700
     20 H3         163.7990   195.3610   265.2330 h1         1 V75       0.041700
     21 H4         161.9220   194.6090   266.6420 h1         1 V75       0.085700
     22 H5         164.0790   194.0110   268.7680 h1         1 V75       0.081700
     23 H6         162.3030   192.1100   267.1660 h1         1 V75       0.070700
     24 H7         162.8520   191.6050   269.4250 ho         1 V75       0.488000
     25 H8         161.0610   198.6940   268.9180 hc         1 V75       0.064700
     26 H9         162.7350   198.1510   269.3600 hc         1 V75       0.064700
     27 H10        162.4820   198.7700   267.7910 hc         1 V75       0.064700
     28 H11        160.8690   195.1040   272.1040 hc         1 V75       0.064367
     29 H12        159.9760   194.6220   270.5990 hc         1 V75       0.064367
     30 H13        160.7440   193.3960   271.5020 hc         1 V75       0.064367
     31 C2A        161.7150   196.7870   268.0600 c          1 V75       0.602100
@<TRIPOS>BOND
     1     1     2 1   
     2     1    16 1   
     3     1    17 1   
     4     2     7 1   
     5     2    15 1   
     6     2    18 1   
     7     3     4 1   
     8     3    15 1   
     9     3    19 1   
    10     3    20 1   
    11     4     5 1   
    12     4    12 1   
    13     4    21 1   
    14     5     6 1   
    15     5     7 1   
    16     5    22 1   
    17     6    10 1   
    18     7     8 1   
    19     7    23 1   
    20     8    24 1   
    21     9    25 1   
    22     9    26 1   
    23     9    27 1   
    24     9    31 1   
    25    10    11 1   
    26    10    14 2   
    27    11    28 1   
    28    11    29 1   
    29    11    30 1   
    30    12    31 1   
    31    13    31 2   
@<TRIPOS>SUBSTRUCTURE
     1 V75         1 TEMP              0 ****  ****    0 ROOT
