@<TRIPOS>MOLECULE
V77
   42    42     1     0     0
SMALL
bcc


@<TRIPOS>ATOM
      1 C1           3.4980     1.6680    -1.1820 ca         1 V77      -0.132500
      2 C10          0.2910    -0.2990    -0.6110 c3         1 V77       0.186400
      3 C11         -3.2890     1.0830     0.1190 c3         1 V77      -0.072400
      4 C12         -2.2120     0.1700    -0.4540 c3         1 V77      -0.074400
      5 C13          0.6220    -3.9240     0.1170 c          1 V77       0.936600
      6 C14          0.8960    -2.5700    -0.5530 c3         1 V77      -0.021600
      7 C15         -0.8050     0.6270    -0.0910 c3         1 V77      -0.062400
      8 C16         -8.2670     2.0160     0.5610 c3         1 V77      -0.087100
      9 C2           2.2770     1.0440    -1.3940 ca         1 V77      -0.105000
     10 C3           4.1030     1.5550     0.0590 ca         1 V77       0.021400
     11 C4           1.6530     0.3200    -0.3840 ca         1 V77      -0.091300
     12 C5           3.5080     0.8320     1.0830 ca         1 V77      -0.132500
     13 C6          -7.1930     1.1550    -0.0900 c3         1 V77      -0.076400
     14 C7           2.2850     0.2190     0.8520 ca         1 V77      -0.105000
     15 C8          -5.7820     1.5470     0.3350 c3         1 V77      -0.075400
     16 C9          -4.7000     0.6740    -0.2860 c3         1 V77      -0.076400
     17 CL           5.6330     2.3260     0.3370 cl         1 V77      -0.148400
     18 O1           0.1530    -1.5340     0.0350 os         1 V77      -0.368600
     19 O2          -0.1650    -3.9620     1.0730 o          1 V77      -0.826300
     20 O3           1.2470    -4.8780    -0.3950 o          1 V77      -0.826300
     21 H1           3.9720     2.2280    -1.9770 ha         1 V77       0.135500
     22 H2           0.1510    -0.4200    -1.6990 h1         1 V77       0.024700
     23 H3          -3.2130     1.0880     1.2120 hc         1 V77       0.030200
     24 H4          -3.1070     2.1140    -0.2010 hc         1 V77       0.030200
     25 H5          -2.3720    -0.8510    -0.0990 hc         1 V77       0.053200
     26 H6          -2.3080     0.1360    -1.5460 hc         1 V77       0.053200
     27 H7           1.9760    -2.3700    -0.5000 h1         1 V77       0.004700
     28 H8           0.6570    -2.6540    -1.6250 h1         1 V77       0.004700
     29 H9          -0.7050     0.7180     0.9960 hc         1 V77       0.035700
     30 H10         -0.6310     1.6280    -0.4970 hc         1 V77       0.035700
     31 H11         -8.1330     3.0710     0.3110 hc         1 V77       0.027033
     32 H12         -9.2660     1.7250     0.2360 hc         1 V77       0.027033
     33 H13         -8.2330     1.9310     1.6490 hc         1 V77       0.027033
     34 H14          1.8080     1.1230    -2.3680 ha         1 V77       0.146500
     35 H15          3.9890     0.7470     2.0470 ha         1 V77       0.135500
     36 H16         -7.3650     0.1040     0.1590 hc         1 V77       0.036700
     37 H17         -7.2740     1.2260    -1.1790 hc         1 V77       0.036700
     38 H18          1.8240    -0.3510     1.6490 ha         1 V77       0.146500
     39 H19         -5.6040     2.5950     0.0700 hc         1 V77       0.033200
     40 H20         -5.7060     1.4950     1.4270 hc         1 V77       0.033200
     41 H21         -4.7860     0.7080    -1.3780 hc         1 V77       0.039200
     42 H22         -4.8700    -0.3710    -0.0030 hc         1 V77       0.039200
@<TRIPOS>BOND
     1     1     9 ar  
     2     1    10 ar  
     3     1    21 1   
     4     2     7 1   
     5     2    11 1   
     6     2    18 1   
     7     2    22 1   
     8     3     4 1   
     9     3    16 1   
    10     3    23 1   
    11     3    24 1   
    12     4     7 1   
    13     4    25 1   
    14     4    26 1   
    15     5     6 1   
    16     5    19 1   
    17     5    20 1   
    18     6    18 1   
    19     6    27 1   
    20     6    28 1   
    21     7    29 1   
    22     7    30 1   
    23     8    13 1   
    24     8    31 1   
    25     8    32 1   
    26     8    33 1   
    27     9    11 ar  
    28     9    34 1   
    29    10    12 ar  
    30    10    17 1   
    31    11    14 ar  
    32    12    14 ar  
    33    12    35 1   
    34    13    15 1   
    35    13    36 1   
    36    13    37 1   
    37    14    38 1   
    38    15    16 1   
    39    15    39 1   
    40    15    40 1   
    41    16    41 1   
    42    16    42 1   
@<TRIPOS>SUBSTRUCTURE
     1 V77         1 TEMP              0 ****  ****    0 ROOT
