@<TRIPOS>MOLECULE
V77
   42    42     1     0     0
SMALL
No Charge or Current Charge


@<TRIPOS>ATOM
      1 C1           3.7640     1.3380    -1.2070 ca         1 V77      -0.114500
      2 C10          0.2860    -0.2060    -0.6550 c3         1 V77       0.209600
      3 C11         -3.3640     1.1240     0.1610 c3         1 V77      -0.072400
      4 C12         -2.2630     0.2150    -0.4270 c3         1 V77      -0.074400
      5 C13          0.8430    -3.9710    -0.0890 c          1 V77       0.726000
      6 C14          1.0160    -2.5410    -0.7030 c3         1 V77       0.001600
      7 C15         -0.8340     0.6680    -0.0420 c3         1 V77      -0.062400
      8 C16         -8.4150     2.0400     0.5660 c3         1 V77      -0.087100
      9 C2           2.4840     0.8100    -1.4510 ca         1 V77      -0.087000
     10 C3           4.2480     1.4260     0.1070 ca         1 V77       0.113000
     11 C4           1.6800     0.3680    -0.3810 ca         1 V77      -0.091300
     12 C5           3.4560     0.9870     1.1800 ca         1 V77      -0.114500
     13 C6          -7.3170     1.1320    -0.0200 c3         1 V77      -0.076400
     14 C7           2.1760     0.4590     0.9380 ca         1 V77      -0.087000
     15 C8          -5.8910     1.5830     0.3640 c3         1 V77      -0.075400
     16 C9          -4.7900     0.6730    -0.2230 c3         1 V77      -0.076400
     17 Cl           5.8500     2.0860     0.4110 cl         1 V77      -0.240000
     18 O1           0.1830    -1.5260    -0.0830 os         1 V77      -0.415000
     19 O2           0.0560    -4.1460     0.8350 o          1 V77      -0.721000
     20 O3           1.5130    -4.8770    -0.5690 o          1 V77      -0.721000
     21 H1           4.3800     1.6770    -2.0360 ha         1 V77       0.117500
     22 H2           0.1250    -0.2540    -1.7410 h1         1 V77       0.024700
     23 H3          -3.2730     1.1380     1.2540 hc         1 V77       0.030200
     24 H4          -3.2060     2.1530    -0.1870 hc         1 V77       0.030200
     25 H5          -2.4240    -0.8130    -0.0790 hc         1 V77       0.053200
     26 H6          -2.3530     0.2000    -1.5210 hc         1 V77       0.053200
     27 H7           2.0760    -2.2710    -0.6090 h1         1 V77       0.004700
     28 H8           0.7850    -2.6100    -1.7740 h1         1 V77       0.004700
     29 H9          -0.7380     0.6770     1.0500 hc         1 V77       0.035700
     30 H10         -0.6910     1.7020    -0.3790 hc         1 V77       0.035700
     31 H11         -8.3000     3.0700     0.2060 hc         1 V77       0.027033
     32 H12         -9.4070     1.6810     0.2670 hc         1 V77       0.027033
     33 H13         -8.3690     2.0480     1.6610 hc         1 V77       0.027033
     34 H14          2.1180     0.7450    -2.4740 ha         1 V77       0.128500
     35 H15          3.8340     1.0540     2.1970 ha         1 V77       0.117500
     36 H16         -7.4800     0.1050     0.3290 hc         1 V77       0.036700
     37 H17         -7.4120     1.1180    -1.1130 hc         1 V77       0.036700
     38 H18          1.5710     0.1150     1.7740 ha         1 V77       0.128500
     39 H19         -5.7320     2.6110     0.0160 hc         1 V77       0.033200
     40 H20         -5.8000     1.5980     1.4580 hc         1 V77       0.033200
     41 H21         -4.8810     0.6580    -1.3170 hc         1 V77       0.039200
     42 H22         -4.9490    -0.3550     0.1250 hc         1 V77       0.039200
@<TRIPOS>BOND
     1     1     9 ar  
     2     1    10 ar  
     3     1    21 1   
     4     2     7 1   
     5     2    11 1   
     6     2    18 1   
     7     2    22 1   
     8     3     4 1   
     9     3    16 1   
    10     3    23 1   
    11     3    24 1   
    12     4     7 1   
    13     4    25 1   
    14     4    26 1   
    15     5     6 1   
    16     5    19 1   
    17     5    20 1   
    18     6    18 1   
    19     6    27 1   
    20     6    28 1   
    21     7    29 1   
    22     7    30 1   
    23     8    13 1   
    24     8    31 1   
    25     8    32 1   
    26     8    33 1   
    27     9    11 ar  
    28     9    34 1   
    29    10    12 ar  
    30    10    17 1   
    31    11    14 ar  
    32    12    14 ar  
    33    12    35 1   
    34    13    15 1   
    35    13    36 1   
    36    13    37 1   
    37    14    38 1   
    38    15    16 1   
    39    15    39 1   
    40    15    40 1   
    41    16    41 1   
    42    16    42 1   
@<TRIPOS>SUBSTRUCTURE
     1 V77         1 TEMP              0 ****  ****    0 ROOT
