@<TRIPOS>MOLECULE
V78
  107   110     1     0     0
SMALL
bcc


@<TRIPOS>ATOM
      1 CAR         -5.8380    -2.8500    -0.7000 ca         1 V78      -0.134000
      2 CAT         -4.7740    -2.9620     0.1820 ca         1 V78      -0.110500
      3 CBS         -3.4710    -2.6630    -0.2130 ca         1 V78      -0.076000
      4 CBF         -2.3450    -2.7140     0.7830 c3         1 V78      -0.125000
      5 CAU         -3.2690    -2.2670    -1.5320 ca         1 V78      -0.110500
      6 CAS         -4.3350    -2.1560    -2.4150 ca         1 V78      -0.134000
      7 CBQ         -5.6370    -2.4370    -2.0130 ca         1 V78      -0.071000
      8 CBB         -6.7900    -2.3240    -2.9840 c3         1 V78      -0.094000
      9 CAM         -8.0270    -1.6820    -2.4080 c2         1 V78      -0.134000
     10 CAL         -8.1010    -0.4500    -1.9140 c2         1 V78      -0.193000
     11 CAZ         -6.9570     0.5140    -1.8560 c3         1 V78       0.015000
     12 NBH         -6.4280     0.5910    -0.5040 ns         1 V78      -0.363000
     13 C           -5.3380     1.3060    -0.2150 c2         1 V78       0.291000
     14 O           -4.7660     2.0140    -1.0340 o          1 V78      -0.375000
     15 CA          -4.8010     1.1770     1.2090 c3         1 V78       0.014000
     16 CB          -4.6750     2.5520     1.8770 c3         1 V78      -0.105000
     17 CG1         -6.0450     3.2140     1.9790 c3         1 V78      -0.205000
     18 CG2         -4.0240     2.4350     3.2500 c3         1 V78      -0.205000
     19 N           -3.5400     0.4840     1.0920 ns         1 V78      -0.361000
     20 CBP         -3.2140    -0.6170     1.7790 c2         1 V78       0.314000
     21 OAJ         -3.8690    -1.0780     2.7030 o          1 V78      -0.387000
     22 CCA         -1.9360    -1.3160     1.3020 c3         1 V78       0.075000
     23 OAK         -1.3850    -0.5600     0.2510 oh         1 V78      -0.361000
     24 CBD         -0.9570    -1.4450     2.4710 c3         1 V78      -0.177000
     25 CBA         -0.6510    -0.1260     3.1810 c3         1 V78      -0.152000
     26 CBC          0.7390    -0.1040     3.7910 c3         1 V78      -0.077000
     27 NBY          1.7680    -0.1530     2.7620 n3         1 V78      -0.123000
     28 NBK          1.8060     1.0100     2.0200 ns         1 V78      -0.319000
     29 CBO          1.6830     0.9960     0.6840 c2         1 V78       0.327000
     30 OAI          1.3750     0.0090     0.0320 o          1 V78      -0.364000
     31 CBX          1.9870     2.3320     0.0110 c3         1 V78       0.029000
     32 CBZ          0.7380     3.0200    -0.6010 c3         1 V78      -0.044000
     33 CAD         -0.3610     3.0920     0.4600 c3         1 V78      -0.208000
     34 CAE          1.1380     4.4410    -1.0050 c3         1 V78      -0.208000
     35 CAF          0.2050     2.2920    -1.8350 c3         1 V78      -0.208000
     36 NBI          3.0350     2.0930    -0.9500 ns         1 V78      -0.366000
     37 CBM          4.2230     2.7300    -0.9210 c2         1 V78       0.412000
     38 OAG          4.5280     3.6250    -0.1610 o          1 V78      -0.412000
     39 OBL          5.0280     2.2580    -1.8760 os         1 V78      -0.266000
     40 CAA          6.3030     2.8710    -2.0070 c3         1 V78      -0.043000
     41 CBE          3.0990    -0.4800     3.2660 c3         1 V78      -0.045000
     42 CXQ          4.0850    -0.5680     2.1370 ca         1 V78      -0.100000
     43 CXV          5.0570     0.4050     1.9590 ca         1 V78      -0.104500
     44 CXW          5.9290     0.3480     0.8770 ca         1 V78      -0.128500
     45 CXP          4.0010    -1.6030     1.2070 ca         1 V78      -0.104500
     46 CXR          4.8710    -1.6630     0.1340 ca         1 V78      -0.128500
     47 CXA          5.8460    -0.6800    -0.0530 ca         1 V78      -0.050000
     48 CXY          6.8050    -0.7420    -1.2200 c5         1 V78      -0.003000
     49 CXZ          6.0980    -0.8780    -2.6030 c5         1 V78      -0.090000
     50 CXT          6.1810    -2.3170    -3.0320 c2         1 V78      -0.704000
     51 SAI          7.3130    -3.1150    -2.1670 ss         1 V78       0.941000
     52 CXG          7.7150    -1.9470    -1.0930 c2         1 V78      -0.707000
     53 HAR         -6.8380    -3.0830    -0.3530 ha         1 V78       0.128000
     54 HAT         -4.9640    -3.2790     1.2000 ha         1 V78       0.140000
     55 HBF1        -2.6380    -3.3380     1.6300 hc         1 V78       0.099000
     56 HBF2        -1.4550    -3.1730     0.3440 hc         1 V78       0.099000
     57 HAU         -2.2700    -2.0350    -1.8770 ha         1 V78       0.140000
     58 HAS         -4.1470    -1.8400    -3.4340 ha         1 V78       0.128000
     59 HBB1        -6.4580    -1.7700    -3.8670 hc         1 V78       0.094500
     60 HBB2        -7.0520    -3.3210    -3.3460 hc         1 V78       0.094500
     61 HAM         -8.9280    -2.2860    -2.4000 ha         1 V78       0.122000
     62 HAL         -9.0480    -0.1010    -1.5160 ha         1 V78       0.125000
     63 HAZ1        -6.1610     0.2230    -2.5440 h1         1 V78       0.096000
     64 HAZ2        -7.2960     1.5060    -2.1670 h1         1 V78       0.096000
     65 HBH         -6.7780    -0.0630     0.1770 hn         1 V78       0.235000
     66 HA          -5.4630     0.5540     1.8170 h1         1 V78       0.118000
     67 HB          -4.0330     3.1720     1.2420 hc         1 V78       0.105000
     68 H           -2.9170     0.7500     0.3440 hn         1 V78       0.266000
     69 HG11        -6.7340     2.5980     2.5630 hc         1 V78       0.075333
     70 HG12        -5.9670     4.1830     2.4730 hc         1 V78       0.075333
     71 HG13        -6.4980     3.3850     1.0020 hc         1 V78       0.075333
     72 HG21        -3.0100     2.0410     3.1840 hc         1 V78       0.075333
     73 HG22        -3.9640     3.4150     3.7250 hc         1 V78       0.075333
     74 HG23        -4.5980     1.7790     3.9080 hc         1 V78       0.075333
     75 HAK         -0.4160    -0.5920     0.2690 ho         1 V78       0.255000
     76 HBD1        -1.3510    -2.1630     3.1910 hc         1 V78       0.103500
     77 HBD2        -0.0300    -1.8770     2.0790 hc         1 V78       0.103500
     78 HBA1        -0.7480     0.7210     2.4960 hc         1 V78       0.094000
     79 HBA2        -1.3830     0.0490     3.9710 hc         1 V78       0.094000
     80 HBC1         0.8570     0.7760     4.4410 h1         1 V78       0.080000
     81 HBC2         0.8790    -0.9830     4.4240 h1         1 V78       0.080000
     82 HBK          2.1110     1.8630     2.4780 hn         1 V78       0.221000
     83 HBE1         3.4460     0.2530     4.0110 h1         1 V78       0.085000
     84 HBE2         3.0170    -1.4400     3.7800 h1         1 V78       0.085000
     85 HBX          2.3930     3.0180     0.7580 h1         1 V78       0.119000
     86 HBI          2.9300     1.3110    -1.5790 hn         1 V78       0.258000
     87 HAD1        -0.0140     3.5710     1.3780 hc         1 V78       0.080889
     88 HAD2        -1.2070     3.6730     0.0870 hc         1 V78       0.080889
     89 HAD3        -0.7420     2.1040     0.7180 hc         1 V78       0.080889
     90 HAE1         1.9090     4.4410    -1.7760 hc         1 V78       0.080889
     91 HAE2         0.2750     4.9740    -1.4060 hc         1 V78       0.080889
     92 HAE3         1.5130     5.0100    -0.1520 hc         1 V78       0.080889
     93 HAF1        -0.1340     1.2820    -1.6110 hc         1 V78       0.080889
     94 HAF2        -0.6480     2.8420    -2.2360 hc         1 V78       0.080889
     95 HAF3         0.9530     2.2340    -2.6280 hc         1 V78       0.080889
     96 HAA1         6.2190     3.9240    -2.2780 h1         1 V78       0.086333
     97 HAA2         6.8940     2.7840    -1.0950 h1         1 V78       0.086333
     98 HAA3         6.8080     2.3370    -2.8080 h1         1 V78       0.086333
     99 HXV          5.1320     1.2240     2.6640 ha         1 V78       0.132500
    100 HXP          3.2370    -2.3610     1.3220 ha         1 V78       0.132500
    101 HXW          6.6840     1.1170     0.7600 ha         1 V78       0.132500
    102 HXR          4.7820    -2.4770    -0.5770 ha         1 V78       0.132500
    103 HXY          7.3960     0.1770    -1.2080 hc         1 V78       0.099000
    104 HXZ1         5.0690    -0.5190    -2.5560 hc         1 V78       0.093000
    105 HXZ2         6.6120    -0.2470    -3.3400 hc         1 V78       0.093000
    106 HXG          8.3480    -2.1660    -0.2470 h4         1 V78       0.171000
    107 HXT          5.7540    -2.7450    -3.9250 h4         1 V78       0.172000
@<TRIPOS>BOND
     1     1     2 1   
     2     1     7 1   
     3     1    53 1   
     4     2     3 1   
     5     2    54 1   
     6     3     4 1   
     7     3     5 1   
     8     4    22 1   
     9     4    55 1   
    10     4    56 1   
    11     5     6 1   
    12     5    57 1   
    13     6     7 1   
    14     6    58 1   
    15     7     8 1   
    16     8     9 1   
    17     8    59 1   
    18     8    60 1   
    19     9    10 1   
    20     9    61 1   
    21    10    11 1   
    22    10    62 1   
    23    11    12 1   
    24    11    63 1   
    25    11    64 1   
    26    12    13 1   
    27    12    65 1   
    28    13    14 1   
    29    13    15 1   
    30    15    16 1   
    31    15    19 1   
    32    15    66 1   
    33    16    17 1   
    34    16    18 1   
    35    16    67 1   
    36    17    69 1   
    37    17    70 1   
    38    17    71 1   
    39    18    72 1   
    40    18    73 1   
    41    18    74 1   
    42    19    20 1   
    43    19    68 1   
    44    20    21 1   
    45    20    22 1   
    46    22    23 1   
    47    22    24 1   
    48    23    75 1   
    49    24    25 1   
    50    24    76 1   
    51    24    77 1   
    52    25    26 1   
    53    25    78 1   
    54    25    79 1   
    55    26    27 1   
    56    26    80 1   
    57    26    81 1   
    58    27    28 1   
    59    27    41 1   
    60    28    29 1   
    61    28    82 1   
    62    29    30 1   
    63    29    31 1   
    64    31    32 1   
    65    31    36 1   
    66    31    85 1   
    67    32    33 1   
    68    32    34 1   
    69    32    35 1   
    70    33    87 1   
    71    33    88 1   
    72    33    89 1   
    73    34    90 1   
    74    34    91 1   
    75    34    92 1   
    76    35    93 1   
    77    35    94 1   
    78    35    95 1   
    79    36    37 1   
    80    36    86 1   
    81    37    38 1   
    82    37    39 1   
    83    39    40 1   
    84    40    96 1   
    85    40    97 1   
    86    40    98 1   
    87    41    42 1   
    88    41    83 1   
    89    41    84 1   
    90    42    43 1   
    91    42    45 1   
    92    43    44 1   
    93    43    99 1   
    94    44    47 1   
    95    44   101 1   
    96    45    46 1   
    97    45   100 1   
    98    46    47 1   
    99    46   102 1   
   100    47    48 1   
   101    48    49 1   
   102    48    52 1   
   103    48   103 1   
   104    49    50 1   
   105    49   104 1   
   106    49   105 1   
   107    50    51 1   
   108    50   107 1   
   109    51    52 1   
   110    52   106 1   
@<TRIPOS>SUBSTRUCTURE
     1 V78         1 TEMP              0 ****  ****    0 ROOT
