@<TRIPOS>MOLECULE
V78
  107   110     1     0     0
SMALL
No Charge or Current Charge


@<TRIPOS>ATOM
      1 CAR         -5.9980    -2.9790    -0.9220 ca         1 V78      -0.134000
      2 CAT         -4.8210    -3.0110    -0.1550 ca         1 V78      -0.110500
      3 CBS         -3.6550    -2.3630    -0.6090 ca         1 V78      -0.076000
      4 CBF         -2.3870    -2.3840     0.2440 c3         1 V78      -0.125000
      5 CAU         -3.6820    -1.6880    -1.8430 ca         1 V78      -0.110500
      6 CAS         -4.8620    -1.6490    -2.6070 ca         1 V78      -0.134000
      7 CBQ         -6.0290    -2.2910    -2.1490 ca         1 V78      -0.071000
      8 CBB         -7.3110    -2.2390    -2.9740 c3         1 V78      -0.094000
      9 CAM         -8.5410    -1.8700    -2.1610 c2         1 V78      -0.134000
     10 CAL         -8.7540    -0.7100    -1.5180 c2         1 V78      -0.193000
     11 CAZ         -7.8080     0.4700    -1.4530 c3         1 V78       0.015000
     12 NBH         -6.9980     0.3880    -0.2400 ns         1 V78      -0.363000
     13 C           -6.0460     1.3510     0.1150 c          1 V78       0.291000
     14 O           -5.7640     2.3020    -0.6100 o          1 V78      -0.375000
     15 CA          -5.3400     1.0690     1.4400 c3         1 V78       0.014000
     16 CB          -5.3320     2.3000     2.4000 c3         1 V78      -0.105000
     17 CG1         -6.7670     2.7610     2.7510 c3         1 V78      -0.205000
     18 CG2         -4.5250     2.0450     3.6990 c3         1 V78      -0.205000
     19 N           -3.9800     0.5880     1.1590 ns         1 V78      -0.361000
     20 CBP         -3.4220    -0.5780     1.7060 c          1 V78       0.314000
     21 OAJ         -3.9450    -1.1900     2.6350 o          1 V78      -0.387000
     22 CCA         -2.1270    -1.0540     1.0100 c3         1 V78       0.075000
     23 OAK         -1.6610    -0.0940     0.0460 oh         1 V78      -0.361000
     24 CBD         -0.9710    -1.2360     2.0330 c3         1 V78      -0.177000
     25 CBA         -0.6690     0.0180     2.9000 c3         1 V78      -0.152000
     26 CBC          0.7210    -0.0300     3.5810 c3         1 V78      -0.077000
     27 NBY          1.8550     0.0030     2.6360 n3         1 V78      -0.123000
     28 NBK          1.8660     1.1980     1.8790 ns         1 V78      -0.319000
     29 CBO          1.8450     1.0500     0.4780 c          1 V78       0.327000
     30 OAI          1.5140     0.0100    -0.0920 o          1 V78      -0.364000
     31 CBX          2.3090     2.3020    -0.2680 c3         1 V78       0.029000
     32 CBZ          1.1520     3.1270    -0.9430 c3         1 V78      -0.044000
     33 CAD          0.0570     3.4670     0.1010 c3         1 V78      -0.208000
     34 CAE          1.7170     4.4630    -1.4950 c3         1 V78      -0.208000
     35 CAF          0.4960     2.3540    -2.1190 c3         1 V78      -0.208000
     36 NBI          3.3750     1.9430    -1.2250 ns         1 V78      -0.366000
     37 CBM          4.6440     2.5210    -1.2530 c          1 V78       0.412000
     38 OAG          4.9720     3.4080    -0.4690 o          1 V78      -0.412000
     39 OBL          5.4420     2.0310    -2.2500 os         1 V78      -0.266000
     40 CAA          6.7660     2.5680    -2.4200 c3         1 V78      -0.043000
     41 CBE          3.1730    -0.2530     3.2440 c3         1 V78      -0.045000
     42 CXQ          4.2860    -0.4110     2.2130 ca         1 V78      -0.100000
     43 CXV          5.2210     0.6180     2.0010 ca         1 V78      -0.104500
     44 CXW          6.2350     0.4690     1.0380 ca         1 V78      -0.128500
     45 CXP          4.3760    -1.5880     1.4490 ca         1 V78      -0.104500
     46 CXR          5.3900    -1.7340     0.4870 ca         1 V78      -0.128500
     47 CXA          6.3320    -0.7060     0.2650 ca         1 V78      -0.050000
     48 CXY          7.4490    -0.8440    -0.7800 c5         1 V78      -0.003000
     49 CXZ          6.7880    -1.1880    -2.1700 c5         1 V78      -0.090000
     50 CXT          7.0990    -2.6570    -2.4740 c2         1 V78      -0.704000
     51 SAI          8.2660    -3.4940    -1.4070 ss         1 V78       0.941000
     52 CXG          8.3410    -2.0240    -0.3940 c2         1 V78      -0.707000
     53 HAR         -6.8900    -3.4820    -0.5560 ha         1 V78       0.128000
     54 HAT         -4.8190    -3.5350     0.7990 ha         1 V78       0.140000
     55 HBF1        -2.4540    -3.2010     0.9720 hc         1 V78       0.099000
     56 HBF2        -1.5180    -2.6230    -0.3820 hc         1 V78       0.099000
     57 HAU         -2.7900    -1.1840    -2.2090 ha         1 V78       0.140000
     58 HAS         -4.8670    -1.1150    -3.5550 ha         1 V78       0.128000
     59 HBB1        -7.2030    -1.5280    -3.8020 hc         1 V78       0.094500
     60 HBB2        -7.4680    -3.2140    -3.4510 hc         1 V78       0.094500
     61 HAM         -9.3030    -2.6500    -2.1280 ha         1 V78       0.122000
     62 HAL         -9.6850    -0.5610    -0.9690 ha         1 V78       0.125000
     63 HAZ1        -7.1430     0.4860    -2.3280 h1         1 V78       0.096000
     64 HAZ2        -8.3760     1.4100    -1.4410 h1         1 V78       0.096000
     65 HBH         -7.0630    -0.4530     0.3220 hn         1 V78       0.235000
     66 HA          -5.8840     0.2630     1.9490 h1         1 V78       0.118000
     67 HB          -4.8400     3.1280     1.8710 hc         1 V78       0.105000
     68 H           -3.4700     1.0180     0.3960 hn         1 V78       0.266000
     69 HG11        -7.3210     1.9650     3.2650 hc         1 V78       0.075333
     70 HG12        -6.7450     3.6380     3.4090 hc         1 V78       0.075333
     71 HG13        -7.3280     3.0400     1.8510 hc         1 V78       0.075333
     72 HG21        -3.4680     1.8490     3.4790 hc         1 V78       0.075333
     73 HG22        -4.5640     2.9190     4.3600 hc         1 V78       0.075333
     74 HG23        -4.9260     1.1840     4.2470 hc         1 V78       0.075333
     75 HAK         -0.6920    -0.1950    -0.0090 ho         1 V78       0.255000
     76 HBD1        -1.2070    -2.0710     2.7050 hc         1 V78       0.103500
     77 HBD2        -0.0670    -1.5390     1.4900 hc         1 V78       0.103500
     78 HBA1        -0.7430     0.9310     2.2970 hc         1 V78       0.094000
     79 HBA2        -1.4390     0.1090     3.6770 hc         1 V78       0.094000
     80 HBC1         0.8010     0.8160     4.2770 h1         1 V78       0.080000
     81 HBC2         0.7740    -0.9460     4.1850 h1         1 V78       0.080000
     82 HBK          2.1420     2.0740     2.3080 hn         1 V78       0.221000
     83 HBE1         3.4280     0.5600     3.9370 h1         1 V78       0.085000
     84 HBE2         3.1270    -1.1740     3.8390 h1         1 V78       0.085000
     85 HBX          2.7590     2.9620     0.4840 h1         1 V78       0.119000
     86 HBI          3.1950     1.1870    -1.8750 hn         1 V78       0.258000
     87 HAD1         0.4830     3.9950     0.9630 hc         1 V78       0.080889
     88 HAD2        -0.7180     4.1090    -0.3350 hc         1 V78       0.080889
     89 HAD3        -0.4390     2.5620     0.4700 hc         1 V78       0.080889
     90 HAE1         2.4550     4.2900    -2.2870 hc         1 V78       0.080889
     91 HAE2         0.9190     5.0850    -1.9190 hc         1 V78       0.080889
     92 HAE3         2.2060     5.0420    -0.7010 hc         1 V78       0.080889
     93 HAF1         0.0390     1.4180    -1.7790 hc         1 V78       0.080889
     94 HAF2        -0.2940     2.9530    -2.5870 hc         1 V78       0.080889
     95 HAF3         1.2290     2.1090    -2.8970 hc         1 V78       0.080889
     96 HAA1         6.7250     3.6430    -2.6390 h1         1 V78       0.086333
     97 HAA2         7.3640     2.4240    -1.5110 h1         1 V78       0.086333
     98 HAA3         7.2800     2.0690    -3.2500 h1         1 V78       0.086333
     99 HXV          5.1610     1.5380     2.5780 ha         1 V78       0.132500
    100 HXP          3.6540    -2.3880     1.5970 ha         1 V78       0.132500
    101 HXW          6.9470     1.2770     0.8890 ha         1 V78       0.132500
    102 HXR          5.4430    -2.6520    -0.0940 ha         1 V78       0.132500
    103 HXY          8.0390     0.0790    -0.8580 hc         1 V78       0.099000
    104 HXZ1         5.7090    -0.9850    -2.1800 hc         1 V78       0.093000
    105 HXZ2         7.2100    -0.5460    -2.9530 hc         1 V78       0.093000
    106 HXG          8.9800    -2.0720     0.4820 h4         1 V78       0.171000
    107 HXT          6.7120    -3.2300    -3.3120 h4         1 V78       0.172000
@<TRIPOS>BOND
     1     1     2 ar  
     2     1     7 ar  
     3     1    53 1   
     4     2     3 ar  
     5     2    54 1   
     6     3     4 1   
     7     3     5 ar  
     8     4    22 1   
     9     4    55 1   
    10     4    56 1   
    11     5     6 ar  
    12     5    57 1   
    13     6     7 ar  
    14     6    58 1   
    15     7     8 1   
    16     8     9 1   
    17     8    59 1   
    18     8    60 1   
    19     9    10 1   
    20     9    61 1   
    21    10    11 1   
    22    10    62 1   
    23    11    12 1   
    24    11    63 1   
    25    11    64 1   
    26    12    13 1   
    27    12    65 1   
    28    13    14 1   
    29    13    15 1   
    30    15    16 1   
    31    15    19 1   
    32    15    66 1   
    33    16    17 1   
    34    16    18 1   
    35    16    67 1   
    36    17    69 1   
    37    17    70 1   
    38    17    71 1   
    39    18    72 1   
    40    18    73 1   
    41    18    74 1   
    42    19    20 1   
    43    19    68 1   
    44    20    21 1   
    45    20    22 1   
    46    22    23 1   
    47    22    24 1   
    48    23    75 1   
    49    24    25 1   
    50    24    76 1   
    51    24    77 1   
    52    25    26 1   
    53    25    78 1   
    54    25    79 1   
    55    26    27 1   
    56    26    80 1   
    57    26    81 1   
    58    27    28 1   
    59    27    41 1   
    60    28    29 1   
    61    28    82 1   
    62    29    30 1   
    63    29    31 1   
    64    31    32 1   
    65    31    36 1   
    66    31    85 1   
    67    32    33 1   
    68    32    34 1   
    69    32    35 1   
    70    33    87 1   
    71    33    88 1   
    72    33    89 1   
    73    34    90 1   
    74    34    91 1   
    75    34    92 1   
    76    35    93 1   
    77    35    94 1   
    78    35    95 1   
    79    36    37 1   
    80    36    86 1   
    81    37    38 1   
    82    37    39 1   
    83    39    40 1   
    84    40    96 1   
    85    40    97 1   
    86    40    98 1   
    87    41    42 1   
    88    41    83 1   
    89    41    84 1   
    90    42    43 ar  
    91    42    45 ar  
    92    43    44 ar  
    93    43    99 1   
    94    44    47 ar  
    95    44   101 1   
    96    45    46 ar  
    97    45   100 1   
    98    46    47 ar  
    99    46   102 1   
   100    47    48 1   
   101    48    49 1   
   102    48    52 1   
   103    48   103 1   
   104    49    50 1   
   105    49   104 1   
   106    49   105 1   
   107    50    51 1   
   108    50   107 1   
   109    51    52 1   
   110    52   106 1   
@<TRIPOS>SUBSTRUCTURE
     1 V78         1 TEMP              0 ****  ****    0 ROOT
