@<TRIPOS>MOLECULE
V7A
   64    67     1     0     0
SMALL
No Charge or Current Charge


@<TRIPOS>ATOM
      1 CAA        120.6390    27.1270    23.9930 ca         1 V7A      -0.150300
      2 CAB        120.6360    27.2640    25.3930 ca         1 V7A      -0.012000
      3 CAC        121.2290    28.3770    25.9990 ca         1 V7A      -0.184000
      4 CAD        121.8310    29.3640    25.2170 ca         1 V7A       0.233100
      5 CAE        121.8710    29.2440    23.8110 ca         1 V7A      -0.286600
      6 CAF        121.2750    28.1170    23.1930 ca         1 V7A       0.031700
      7 CAG        121.2790    28.0380    21.6610 c6         1 V7A      -0.041100
      8 CAH        122.5260    30.3090    22.9720 c          1 V7A       0.634900
      9 CAI        122.8360    30.0480    21.5290 ce         1 V7A      -0.374400
     10 CAJ        122.5510    28.6350    21.0210 c6         1 V7A       0.018500
     11 CAK        122.4370    28.6120    19.4840 c6         1 V7A      -0.083400
     12 CAL        123.4350    30.9730    20.7330 c2         1 V7A       0.207900
     13 CAM        123.8570    30.7600    19.2540 c6         1 V7A       0.148200
     14 CAN        123.6850    29.2600    18.8120 c6         1 V7A      -0.046700
     15 CAO        123.5770    29.1240    17.2550 c6         1 V7A       0.202700
     16 CAP        123.0400    31.7480    18.3190 c          1 V7A       0.606300
     17 CAQ        122.0600    31.1640    17.3440 ce         1 V7A      -0.487400
     18 CAR        122.3540    29.9550    16.8220 c2         1 V7A       0.304900
     19 CAS        119.9270    25.8990    23.4160 c3         1 V7A       0.188100
     20 CAV        119.6140    22.6130    24.0810 c3         1 V7A       0.153900
     21 CAW        121.9780    24.6280    22.7780 c3         1 V7A       0.126100
     22 CBC        120.9070    31.9350    16.8150 c          1 V7A       0.643300
     23 NAT        120.7190    24.6550    23.5540 n3         1 V7A      -0.469100
     24 NBD        120.8520    33.2500    17.0460 nt         1 V7A      -0.552000
     25 NBF        124.8440    29.4840    16.5140 n3         1 V7A      -0.691600
     26 OAU        119.8880    23.5660    23.0370 os         1 V7A      -0.278300
     27 OAX        122.3760    30.4420    25.8400 oh         1 V7A      -0.542100
     28 OAY        122.8160    31.3940    23.4710 o          1 V7A      -0.655100
     29 OAZ        123.7870    32.1770    21.2140 oh         1 V7A      -0.532100
     30 OBA        125.2660    31.1030    19.1730 oh         1 V7A      -0.622000
     31 OBB        123.1540    32.9640    18.4420 o          1 V7A      -0.567100
     32 OBE        120.0540    31.4110    16.1200 o          1 V7A      -0.681100
     33 OBI        121.5710    29.3530    15.9150 oh         1 V7A      -0.562100
     34 H1         120.1610    26.5070    26.0140 ha         1 V7A       0.123000
     35 H2         121.2110    28.4790    27.0810 ha         1 V7A       0.136000
     36 H3         120.3910    28.5620    21.2830 hc         1 V7A       0.060700
     37 H4         121.1950    27.0030    21.3130 hc         1 V7A       0.060700
     38 H5         123.4000    27.9990    21.3120 hc         1 V7A       0.056700
     39 H6         121.5160    29.1330    19.1860 hc         1 V7A       0.055200
     40 H7         122.3290    27.5730    19.1430 hc         1 V7A       0.055200
     41 H8         124.5480    28.6870    19.1710 hc         1 V7A       0.082700
     42 H9         123.3520    28.0690    17.0370 h1         1 V7A       0.052700
     43 H10        119.6380    26.0620    22.3710 h1         1 V7A       0.052700
     44 H11        118.9830    25.7780    23.9640 h1         1 V7A       0.052700
     45 H12        118.9910    21.7960    23.6970 h1         1 V7A       0.032700
     46 H13        120.5460    22.1800    24.4670 h1         1 V7A       0.032700
     47 H14        119.0800    23.0890    24.9130 h1         1 V7A       0.032700
     48 H15        122.6500    25.4360    23.0970 h1         1 V7A       0.044033
     49 H16        122.5000    23.6750    22.9280 h1         1 V7A       0.044033
     50 H17        121.7810    24.7440    21.7040 h1         1 V7A       0.044033
     51 H18        125.6120    29.8050    14.5470 h1         1 V7A       0.038367
     52 H19        124.3440    28.5620    14.6500 h1         1 V7A       0.038367
     53 H20        123.9260    30.2910    14.7540 h1         1 V7A       0.038367
     54 H21        126.2970    28.7790    17.9300 h1         1 V7A       0.038367
     55 H22        125.8090    27.5840    16.7020 h1         1 V7A       0.038367
     56 H23        126.8920    28.9280    16.2780 h1         1 V7A       0.038367
     57 H24        120.0900    33.7910    16.6690 hn         1 V7A       0.342500
     58 H25        121.5850    33.6830    17.5910 hn         1 V7A       0.342500
     59 H27        122.6550    31.0520    25.1070 ho         1 V7A       0.517000
     60 H28        123.4860    32.1590    22.1640 ho         1 V7A       0.537000
     61 H29        125.3420    31.9680    19.6360 ho         1 V7A       0.474000
     62 H30        120.8220    30.0030    15.7970 ho         1 V7A       0.566000
     63 CBG        124.6690    29.5360    15.0410 c3         1 V7A       0.147100
     64 CBH        126.0160    28.6480    16.8780 c3         1 V7A       0.147100
@<TRIPOS>BOND
     1     1     2 ar  
     2     1     6 ar  
     3     1    19 1   
     4     2     3 ar  
     5     2    34 1   
     6     3     4 ar  
     7     3    35 1   
     8     4     5 ar  
     9     4    27 1   
    10     5     6 ar  
    11     5     8 1   
    12     6     7 1   
    13     7    10 1   
    14     7    36 1   
    15     7    37 1   
    16     8     9 1   
    17     8    28 2   
    18     9    10 1   
    19     9    12 2   
    20    10    11 1   
    21    10    38 1   
    22    11    14 1   
    23    11    39 1   
    24    11    40 1   
    25    12    13 1   
    26    12    29 1   
    27    13    14 1   
    28    13    16 1   
    29    13    30 1   
    30    14    15 1   
    31    14    41 1   
    32    15    18 1   
    33    15    25 1   
    34    15    42 1   
    35    16    17 1   
    36    16    31 2   
    37    17    18 2   
    38    17    22 1   
    39    18    33 1   
    40    19    23 1   
    41    19    43 1   
    42    19    44 1   
    43    20    26 1   
    44    20    45 1   
    45    20    46 1   
    46    20    47 1   
    47    21    23 1   
    48    21    48 1   
    49    21    49 1   
    50    21    50 1   
    51    22    24 1   
    52    22    32 2   
    53    23    26 1   
    54    24    57 1   
    55    24    58 1   
    56    25    63 1   
    57    25    64 1   
    58    27    59 1   
    59    29    60 1   
    60    30    61 1   
    61    33    62 1   
    62    51    63 1   
    63    52    63 1   
    64    53    63 1   
    65    54    64 1   
    66    55    64 1   
    67    56    64 1   
@<TRIPOS>SUBSTRUCTURE
     1 V7A         1 TEMP              0 ****  ****    0 ROOT
