@<TRIPOS>MOLECULE
V7A
   64    67     1     0     0
SMALL
abcg2


@<TRIPOS>ATOM
      1 CAA        120.7410    27.1040    23.8780 ca         1 V7A      -0.150300
      2 CAB        120.8950    27.1590    25.2680 ca         1 V7A      -0.012000
      3 CAC        121.5850    28.1680    25.8980 ca         1 V7A      -0.184000
      4 CAD        122.1600    29.1840    25.1350 ca         1 V7A       0.233100
      5 CAE        122.0730    29.1230    23.7290 ca         1 V7A      -0.286600
      6 CAF        121.3560    28.0770    23.1020 ca         1 V7A       0.031700
      7 CAG        121.2640    28.0850    21.6010 c6         1 V7A      -0.041100
      8 CAH        122.7180    30.1600    22.9280 c          1 V7A       0.634900
      9 CAI        122.8910    29.9460    21.5150 ce         1 V7A      -0.374400
     10 CAJ        122.5460    28.5960    20.9630 c6         1 V7A       0.018500
     11 CAK        122.4500    28.6350    19.4500 c6         1 V7A      -0.083400
     12 CAL        123.4480    30.9300    20.7550 c2         1 V7A       0.207900
     13 CAM        123.7000    30.8030    19.2560 c6         1 V7A       0.148200
     14 CAN        123.6670    29.3340    18.8420 c6         1 V7A      -0.046700
     15 CAO        123.6670    29.1610    17.3190 c6         1 V7A       0.202700
     16 CAP        122.6420    31.6420    18.4940 c          1 V7A       0.606300
     17 CAQ        122.0470    31.1040    17.2890 ce         1 V7A      -0.487400
     18 CAR        122.4630    29.8870    16.7760 c2         1 V7A       0.304900
     19 CAS        119.9090    25.9770    23.3230 c3         1 V7A       0.188100
     20 CAV        119.3750    22.9590    24.3580 c3         1 V7A       0.153900
     21 CAW        121.7250    24.5480    22.5960 c3         1 V7A       0.126100
     22 CBC        120.9230    31.7630    16.6000 c          1 V7A       0.643300
     23 NAT        120.6020    24.7060    23.4970 n3         1 V7A      -0.469100
     24 NBD        120.5150    32.9590    16.9890 nt         1 V7A      -0.552000
     25 NBF        124.8790    29.6380    16.6630 n3         1 V7A      -0.691600
     26 OAU        119.6810    23.6810    23.1870 os         1 V7A      -0.278300
     27 OAX        122.7810    30.1700    25.7770 oh         1 V7A      -0.542100
     28 OAY        123.1300    31.2130    23.4780 o          1 V7A      -0.655100
     29 OAZ        123.8550    32.0770    21.2510 oh         1 V7A      -0.532100
     30 OBA        124.9610    31.3430    18.9570 oh         1 V7A      -0.622000
     31 OBB        122.3640    32.7460    18.9390 o          1 V7A      -0.567100
     32 OBE        120.3640    31.1760    15.6400 o          1 V7A      -0.681100
     33 OBI        121.8560    29.3120    15.7940 oh         1 V7A      -0.562100
     34 H1         120.4390    26.3830    25.8720 ha         1 V7A       0.123000
     35 H2         121.6700    28.1950    26.9760 ha         1 V7A       0.136000
     36 H3         120.4220    28.7140    21.2880 hc         1 V7A       0.060700
     37 H4         121.0590    27.0850    21.2220 hc         1 V7A       0.060700
     38 H5         123.3500    27.8970    21.2320 hc         1 V7A       0.056700
     39 H6         121.5180    29.1300    19.1600 hc         1 V7A       0.055200
     40 H7         122.3930    27.6130    19.0700 hc         1 V7A       0.055200
     41 H8         124.5520    28.8460    19.2570 hc         1 V7A       0.082700
     42 H9         123.5110    28.0870    17.1120 h1         1 V7A       0.052700
     43 H10        119.6200    26.1540    22.2790 h1         1 V7A       0.052700
     44 H11        118.9800    25.9220    23.8960 h1         1 V7A       0.052700
     45 H12        118.6700    22.1800    24.0690 h1         1 V7A       0.032700
     46 H13        120.2600    22.4880    24.7960 h1         1 V7A       0.032700
     47 H14        118.9030    23.5880    25.1200 h1         1 V7A       0.032700
     48 H15        122.4540    25.3310    22.8000 h1         1 V7A       0.044033
     49 H16        122.2110    23.5900    22.7770 h1         1 V7A       0.044033
     50 H17        121.4430    24.6050    21.5360 h1         1 V7A       0.044033
     51 H18        125.7690    29.8840    14.8040 h1         1 V7A       0.038367
     52 H19        124.5690    28.5870    14.8170 h1         1 V7A       0.038367
     53 H20        124.0700    30.2890    14.8230 h1         1 V7A       0.038367
     54 H21        126.2360    29.0840    18.1800 h1         1 V7A       0.038367
     55 H22        125.9800    27.8290    16.9530 h1         1 V7A       0.038367
     56 H23        126.9260    29.2800    16.5850 h1         1 V7A       0.038367
     57 H24        119.7510    33.4080    16.5100 hn         1 V7A       0.342500
     58 H25        120.9810    33.4340    17.7480 hn         1 V7A       0.342500
     59 H27        123.0560    30.8360    25.1080 ho         1 V7A       0.517000
     60 H28        123.7020    32.0400    22.2360 ho         1 V7A       0.537000
     61 H29        125.0170    32.2330    19.3250 ho         1 V7A       0.474000
     62 H30        121.0880    29.9720    15.5240 ho         1 V7A       0.566000
     63 CBG        124.8040    29.5860    15.2130 c3         1 V7A       0.147100
     64 CBH        126.0510    28.9150    17.1220 c3         1 V7A       0.147100
@<TRIPOS>BOND
     1     1     2 ar  
     2     1     6 ar  
     3     1    19 1   
     4     2     3 ar  
     5     2    34 1   
     6     3     4 ar  
     7     3    35 1   
     8     4     5 ar  
     9     4    27 1   
    10     5     6 ar  
    11     5     8 1   
    12     6     7 1   
    13     7    10 1   
    14     7    36 1   
    15     7    37 1   
    16     8     9 1   
    17     8    28 2   
    18     9    10 1   
    19     9    12 2   
    20    10    11 1   
    21    10    38 1   
    22    11    14 1   
    23    11    39 1   
    24    11    40 1   
    25    12    13 1   
    26    12    29 1   
    27    13    14 1   
    28    13    16 1   
    29    13    30 1   
    30    14    15 1   
    31    14    41 1   
    32    15    18 1   
    33    15    25 1   
    34    15    42 1   
    35    16    17 1   
    36    16    31 2   
    37    17    18 2   
    38    17    22 1   
    39    18    33 1   
    40    19    23 1   
    41    19    43 1   
    42    19    44 1   
    43    20    26 1   
    44    20    45 1   
    45    20    46 1   
    46    20    47 1   
    47    21    23 1   
    48    21    48 1   
    49    21    49 1   
    50    21    50 1   
    51    22    24 1   
    52    22    32 2   
    53    23    26 1   
    54    24    57 1   
    55    24    58 1   
    56    25    63 1   
    57    25    64 1   
    58    27    59 1   
    59    29    60 1   
    60    30    61 1   
    61    33    62 1   
    62    51    63 1   
    63    52    63 1   
    64    53    63 1   
    65    54    64 1   
    66    55    64 1   
    67    56    64 1   
@<TRIPOS>SUBSTRUCTURE
     1 V7A         1 TEMP              0 ****  ****    0 ROOT
