@<TRIPOS>MOLECULE
V7B
  138   139     1     0     0
SMALL
bcc


@<TRIPOS>ATOM
      1 C10        231.7350   212.2880   212.6980 c          1 V7B       0.651100
      2 C20        224.5210   218.8830   204.8430 c3         1 V7B      -0.073400
      3 C22        222.6200   219.9230   203.5810 c3         1 V7B      -0.087100
      4 C28        229.9440   210.1240   209.3520 c          1 V7B       0.640100
      5 C11        231.3950   213.7130   212.3560 c3         1 V7B      -0.132400
      6 C16        227.8310   216.4350   207.8010 c3         1 V7B      -0.076400
      7 C19        225.6790   219.0260   205.8240 c3         1 V7B      -0.073400
      8 C23        224.8410   221.0750   203.6080 c3         1 V7B      -0.087100
      9 C29        229.0400   211.0920   208.6350 c3         1 V7B      -0.139400
     10 C30        228.8210   210.7660   207.1650 c3         1 V7B      -0.067400
     11 C31        228.1880   211.9150   206.3860 c3         1 V7B      -0.076400
     12 C32        226.8200   212.3680   206.8850 c3         1 V7B      -0.076400
     13 C34        224.8140   213.8780   206.4160 c3         1 V7B      -0.075400
     14 C35        224.0770   214.6930   205.3590 c3         1 V7B      -0.074400
     15 C36        222.8260   215.4070   205.8620 c3         1 V7B      -0.074400
     16 C37        221.7240   214.4810   206.3640 c3         1 V7B      -0.075400
     17 C38        220.4560   215.2410   206.7380 c3         1 V7B      -0.073400
     18 C39        219.2700   214.3660   207.1480 c3         1 V7B      -0.059700
     19 C41        219.5550   213.5560   208.4090 c3         1 V7B      -0.086600
     20 C43        229.0690   214.4400   219.5070 c6         1 V7B       0.349900
     21 C44        227.9490   215.3990   219.9030 c6         1 V7B       0.093100
     22 C1         229.0260   211.1460   215.4300 c6         1 V7B       0.355900
     23 C12        230.6410   213.7730   211.0240 c3         1 V7B      -0.076400
     24 C13        230.2470   215.1810   210.5990 c3         1 V7B      -0.075400
     25 C14        229.3450   215.1500   209.3690 c3         1 V7B      -0.076400
     26 C15        228.8640   216.5200   208.9170 c3         1 V7B      -0.073400
     27 C17        227.3190   217.7920   207.3370 c3         1 V7B      -0.073400
     28 C2         228.0790   211.0100   216.6180 c6         1 V7B       0.119100
     29 C21        223.8780   220.1970   204.4000 c3         1 V7B      -0.059700
     30 C3         227.8830   212.3750   217.2620 c6         1 V7B       0.090100
     31 C33        226.1370   213.3200   205.9080 c3         1 V7B      -0.077400
     32 C4         229.2400   212.9800   217.6150 c6         1 V7B       0.094100
     33 C40        218.0240   215.2240   207.3450 c3         1 V7B      -0.086600
     34 C45        228.2740   216.8120   219.4360 c6         1 V7B       0.077100
     35 C46        229.6480   217.2240   219.9590 c6         1 V7B       0.132100
     36 C47        230.6900   216.1980   219.5140 c6         1 V7B       0.145100
     37 C48        232.0840   216.4040   220.0950 c3         1 V7B       0.148400
     38 C5         230.1060   213.0380   216.3550 c6         1 V7B       0.161100
     39 C6         231.4880   213.6110   216.5830 c3         1 V7B       0.149400
     40 C7         229.3560   209.6970   213.5480 c3         1 V7B       0.151400
     41 C8         230.6570   210.1530   212.9060 c3         1 V7B       0.120100
     42 C9         230.8220   209.6150   211.4920 c3         1 V7B       0.113400
     43 O1         229.3110   209.8840   214.9430 os         1 V7B      -0.381600
     44 O10        230.6940   209.3410   208.8280 o          1 V7B      -0.531000
     45 O2         226.8730   210.4760   216.1400 oh         1 V7B      -0.588800
     46 O3         227.0600   212.2030   218.3880 oh         1 V7B      -0.618800
     47 O4         229.0560   214.2870   218.1200 os         1 V7B      -0.436600
     48 O49        226.7380   214.9220   219.3500 oh         1 V7B      -0.605800
     49 O5         232.1430   212.8930   217.6000 oh         1 V7B      -0.584800
     50 O50        227.3390   217.7510   219.9250 oh         1 V7B      -0.609800
     51 O51        230.0100   218.4930   219.4830 oh         1 V7B      -0.570800
     52 O52        230.2970   214.9110   219.9680 os         1 V7B      -0.419600
     53 O6         230.2370   211.7240   215.8450 os         1 V7B      -0.413600
     54 O7         230.6220   211.5770   212.8700 os         1 V7B      -0.425900
     55 O9         232.8430   211.8210   212.7650 o          1 V7B      -0.529000
     56 H1         223.7510   218.2570   205.3080 hc         1 V7B       0.037200
     57 H2         224.8580   218.3330   203.9560 hc         1 V7B       0.037200
     58 H3         221.9010   219.3220   204.1400 hc         1 V7B       0.031700
     59 H4         222.1240   220.8500   203.2870 hc         1 V7B       0.031700
     60 H5         222.8660   219.3770   202.6670 hc         1 V7B       0.031700
     61 H6         232.3170   214.2930   212.3090 hc         1 V7B       0.069700
     62 H7         230.7740   214.1390   213.1490 hc         1 V7B       0.069700
     63 H8         226.9830   215.8310   208.1460 hc         1 V7B       0.037700
     64 H9         228.2530   215.8940   206.9470 hc         1 V7B       0.037700
     65 H10        225.3770   217.1040   206.7320 hc         1 V7B       0.037700
     66 H11        226.5580   217.1000   205.4460 hc         1 V7B       0.037700
     67 H12        226.4990   219.5900   205.3690 hc         1 V7B       0.038200
     68 H13        225.3490   219.6150   206.6880 hc         1 V7B       0.038200
     69 H14        225.7290   221.3430   204.1820 hc         1 V7B       0.031700
     70 H15        225.1730   220.5620   202.7020 hc         1 V7B       0.031700
     71 H16        224.3600   222.0060   203.3020 hc         1 V7B       0.031700
     72 H17        229.5070   212.0790   208.7310 hc         1 V7B       0.071200
     73 H18        228.0930   211.1660   209.1740 hc         1 V7B       0.071200
     74 H19        228.1940   209.8740   207.0770 hc         1 V7B       0.055200
     75 H20        229.7770   210.5180   206.7000 hc         1 V7B       0.055200
     76 H21        228.8700   212.7730   206.3900 hc         1 V7B       0.041200
     77 H22        228.0990   211.6060   205.3400 hc         1 V7B       0.041200
     78 H23        226.9190   212.8580   207.8600 hc         1 V7B       0.037700
     79 H24        226.1780   211.4950   207.0460 hc         1 V7B       0.037700
     80 H25        225.0000   214.5060   207.2960 hc         1 V7B       0.038200
     81 H26        224.1820   213.0530   206.7600 hc         1 V7B       0.038200
     82 H27        223.8070   214.0370   204.5230 hc         1 V7B       0.038200
     83 H28        224.7620   215.4400   204.9450 hc         1 V7B       0.038200
     84 H29        223.1030   216.1070   206.6590 hc         1 V7B       0.037200
     85 H30        222.4250   216.0240   205.0510 hc         1 V7B       0.037200
     86 H31        221.4910   213.7450   205.5860 hc         1 V7B       0.038700
     87 H32        222.0870   213.9120   207.2240 hc         1 V7B       0.038700
     88 H33        220.6770   215.9450   207.5500 hc         1 V7B       0.036200
     89 H34        220.1550   215.8550   205.8820 hc         1 V7B       0.036200
     90 H35        219.0750   213.6630   206.3290 hc         1 V7B       0.043700
     91 H36        218.6920   212.9480   208.6870 hc         1 V7B       0.031533
     92 H37        220.4020   212.8800   208.2860 hc         1 V7B       0.031533
     93 H38        219.7760   214.2160   209.2520 hc         1 V7B       0.031533
     94 H39        228.9240   213.4760   220.0070 h2         1 V7B       0.090700
     95 H40        227.8970   215.3990   220.9990 h1         1 V7B       0.061700
     96 H41        228.5470   211.7760   214.6600 h2         1 V7B       0.041700
     97 H42        229.7340   213.1700   211.0950 hc         1 V7B       0.051700
     98 H43        231.2520   213.3170   210.2380 hc         1 V7B       0.051700
     99 H44        231.1400   215.7800   210.3970 hc         1 V7B       0.041200
    100 H45        229.7190   215.6760   211.4200 hc         1 V7B       0.041200
    101 H46        228.4750   214.5210   209.5910 hc         1 V7B       0.037200
    102 H47        229.8690   214.6550   208.5440 hc         1 V7B       0.037200
    103 H48        229.7170   217.1230   208.5880 hc         1 V7B       0.038700
    104 H49        228.4270   217.0510   209.7700 hc         1 V7B       0.038700
    105 H50        228.1490   218.3750   206.9240 hc         1 V7B       0.037200
    106 H51        226.9540   218.3570   208.2020 hc         1 V7B       0.037200
    107 H52        228.5520   210.3410   217.3560 h1         1 V7B       0.069700
    108 H53        223.5800   220.7450   205.3030 hc         1 V7B       0.043700
    109 H54        227.4010   213.0390   216.5250 h1         1 V7B       0.047700
    110 H55        225.9680   212.7940   204.9610 hc         1 V7B       0.037200
    111 H56        226.8120   214.1510   205.6740 hc         1 V7B       0.037200
    112 H57        229.7380   212.3440   218.3570 h1         1 V7B       0.086700
    113 H58        217.7760   215.7840   206.4410 hc         1 V7B       0.031533
    114 H59        217.1570   214.6160   207.6070 hc         1 V7B       0.031533
    115 H60        218.1750   215.9470   208.1510 hc         1 V7B       0.031533
    116 H61        228.3030   216.8340   218.3370 h1         1 V7B       0.070700
    117 H62        229.6130   217.2100   221.0620 h1         1 V7B       0.046700
    118 H63        230.7670   216.2160   218.4180 h1         1 V7B       0.072700
    119 H64        232.0050   216.5850   221.1750 h1         1 V7B       0.029700
    120 H65        232.6310   215.4600   219.9680 h1         1 V7B       0.029700
    121 H66        229.6140   213.6860   215.6110 h1         1 V7B       0.042700
    122 H67        232.0400   213.5700   215.6330 h1         1 V7B       0.032700
    123 H68        231.3760   214.6710   216.8330 h1         1 V7B       0.032700
    124 H69        228.5030   210.1790   213.0570 h1         1 V7B       0.066700
    125 H70        229.2600   208.6210   213.3900 h1         1 V7B       0.066700
    126 H71        231.5000   209.7890   213.5020 h1         1 V7B       0.092700
    127 H72        230.6800   208.5310   211.4890 h1         1 V7B       0.064700
    128 H73        231.8280   209.8180   211.1210 h1         1 V7B       0.064700
    129 H74        226.2370   210.4920   216.8640 ho         1 V7B       0.423000
    130 H75        226.7710   213.0770   218.6970 ho         1 V7B       0.437000
    131 H76        226.0120   215.1530   219.9380 ho         1 V7B       0.418000
    132 H77        232.9560   213.3560   217.8210 ho         1 V7B       0.405000
    133 H78        226.5800   217.7750   219.3350 ho         1 V7B       0.415000
    134 H79        229.2700   219.0850   219.6580 ho         1 V7B       0.418000
    135 H80        233.6160   217.5350   219.7830 ho         1 V7B       0.406000
    136 O8         229.8520   210.2660   210.6730 os         1 V7B      -0.427900
    137 O53        232.7270   217.4590   219.4260 oh         1 V7B      -0.582800
    138 C18        226.2050   217.6810   206.3050 c3         1 V7B      -0.077400
@<TRIPOS>BOND
     1     1     5 1   
     2     1    54 1   
     3     1    55 2   
     4     2     7 1   
     5     2    29 1   
     6     2    56 1   
     7     2    57 1   
     8     3    29 1   
     9     3    58 1   
    10     3    59 1   
    11     3    60 1   
    12     4     9 1   
    13     4    44 2   
    14     4   136 1   
    15     5    23 1   
    16     5    61 1   
    17     5    62 1   
    18     6    26 1   
    19     6    27 1   
    20     6    63 1   
    21     6    64 1   
    22     7    67 1   
    23     7    68 1   
    24     7   138 1   
    25     8    29 1   
    26     8    69 1   
    27     8    70 1   
    28     8    71 1   
    29     9    10 1   
    30     9    72 1   
    31     9    73 1   
    32    10    11 1   
    33    10    74 1   
    34    10    75 1   
    35    11    12 1   
    36    11    76 1   
    37    11    77 1   
    38    12    31 1   
    39    12    78 1   
    40    12    79 1   
    41    13    14 1   
    42    13    31 1   
    43    13    80 1   
    44    13    81 1   
    45    14    15 1   
    46    14    82 1   
    47    14    83 1   
    48    15    16 1   
    49    15    84 1   
    50    15    85 1   
    51    16    17 1   
    52    16    86 1   
    53    16    87 1   
    54    17    18 1   
    55    17    88 1   
    56    17    89 1   
    57    18    19 1   
    58    18    33 1   
    59    18    90 1   
    60    19    91 1   
    61    19    92 1   
    62    19    93 1   
    63    20    21 1   
    64    20    47 1   
    65    20    52 1   
    66    20    94 1   
    67    21    34 1   
    68    21    48 1   
    69    21    95 1   
    70    22    28 1   
    71    22    43 1   
    72    22    53 1   
    73    22    96 1   
    74    23    24 1   
    75    23    97 1   
    76    23    98 1   
    77    24    25 1   
    78    24    99 1   
    79    24   100 1   
    80    25    26 1   
    81    25   101 1   
    82    25   102 1   
    83    26   103 1   
    84    26   104 1   
    85    27   105 1   
    86    27   106 1   
    87    27   138 1   
    88    28    30 1   
    89    28    45 1   
    90    28   107 1   
    91    29   108 1   
    92    30    32 1   
    93    30    46 1   
    94    30   109 1   
    95    31   110 1   
    96    31   111 1   
    97    32    38 1   
    98    32    47 1   
    99    32   112 1   
   100    33   113 1   
   101    33   114 1   
   102    33   115 1   
   103    34    35 1   
   104    34    50 1   
   105    34   116 1   
   106    35    36 1   
   107    35    51 1   
   108    35   117 1   
   109    36    37 1   
   110    36    52 1   
   111    36   118 1   
   112    37   119 1   
   113    37   120 1   
   114    37   137 1   
   115    38    39 1   
   116    38    53 1   
   117    38   121 1   
   118    39    49 1   
   119    39   122 1   
   120    39   123 1   
   121    40    41 1   
   122    40    43 1   
   123    40   124 1   
   124    40   125 1   
   125    41    42 1   
   126    41    54 1   
   127    41   126 1   
   128    42   127 1   
   129    42   128 1   
   130    42   136 1   
   131    45   129 1   
   132    46   130 1   
   133    48   131 1   
   134    49   132 1   
   135    50   133 1   
   136    51   134 1   
   137    65   138 1   
   138    66   138 1   
   139   135   137 1   
@<TRIPOS>SUBSTRUCTURE
     1 V7B         1 TEMP              0 ****  ****    0 ROOT
