@<TRIPOS>MOLECULE
V7B
  138   139     1     0     0
SMALL
No Charge or Current Charge


@<TRIPOS>ATOM
      1 C10        231.3450   212.9700   212.7210 c          1 V7B       0.602100
      2 C20        224.6130   218.3490   203.4570 c3         1 V7B      -0.073400
      3 C22        222.8090   218.7510   201.6970 c3         1 V7B      -0.087100
      4 C28        230.7770   210.5680   209.1040 c          1 V7B       0.591100
      5 C11        230.6820   214.3200   212.4460 c3         1 V7B      -0.132400
      6 C16        227.8330   216.7400   207.1340 c3         1 V7B      -0.076400
      7 C19        225.1150   218.5540   204.9060 c3         1 V7B      -0.073400
      8 C23        223.5390   220.6840   203.1830 c3         1 V7B      -0.087100
      9 C29        229.7520   211.2460   208.1910 c3         1 V7B      -0.139400
     10 C30        228.6870   210.2490   207.6740 c3         1 V7B      -0.067400
     11 C31        227.7240   210.8480   206.6190 c3         1 V7B      -0.076400
     12 C32        226.8140   211.9830   207.1470 c3         1 V7B      -0.076400
     13 C34        224.9240   213.6470   206.5890 c3         1 V7B      -0.075400
     14 C35        224.0070   214.2290   205.4880 c3         1 V7B      -0.074400
     15 C36        223.1450   215.4280   205.9460 c3         1 V7B      -0.074400
     16 C37        222.0430   215.0760   206.9700 c3         1 V7B      -0.075400
     17 C38        221.1780   216.2990   207.3550 c3         1 V7B      -0.073400
     18 C39        219.9910   215.9860   208.3070 c3         1 V7B      -0.059700
     19 C41        220.4460   215.4330   209.6800 c3         1 V7B      -0.086600
     20 C43        229.1270   213.9200   219.7560 c6         1 V7B       0.396300
     21 C44        227.8160   214.6620   220.1870 c6         1 V7B       0.116300
     22 C1         229.1200   210.8670   215.3560 c6         1 V7B       0.402300
     23 C12        230.4630   214.4890   210.9220 c3         1 V7B      -0.076400
     24 C13        229.5020   215.6360   210.5470 c3         1 V7B      -0.075400
     25 C14        229.2220   215.6940   209.0290 c3         1 V7B      -0.076400
     26 C15        228.1550   216.7410   208.6440 c3         1 V7B      -0.073400
     27 C17        226.6890   217.7070   206.7610 c3         1 V7B      -0.073400
     28 C2         228.3070   210.5900   216.6650 c6         1 V7B       0.142300
     29 C21        223.3350   219.1530   203.0940 c3         1 V7B      -0.059700
     30 C3         228.0920   211.9370   217.4080 c6         1 V7B       0.113300
     31 C33        225.8550   212.5320   206.0670 c3         1 V7B      -0.077400
     32 C4         229.4710   212.6210   217.6960 c6         1 V7B       0.117300
     33 C40        219.0890   217.2290   208.4910 c3         1 V7B      -0.086600
     34 C45        227.9450   216.1750   219.8430 c6         1 V7B       0.100300
     35 C46        229.2370   216.7640   220.4910 c6         1 V7B       0.155300
     36 C47        230.4880   215.9310   220.0330 c6         1 V7B       0.168300
     37 C48        231.8300   216.3370   220.7320 c3         1 V7B       0.171600
     38 C5         230.2670   212.7560   216.3610 c6         1 V7B       0.184300
     39 C6         231.7090   213.3250   216.5810 c3         1 V7B       0.172600
     40 C7         229.5790   209.7270   213.1930 c3         1 V7B       0.174600
     41 C8         230.8200   210.5900   212.8300 c3         1 V7B       0.143300
     42 C9         231.3790   210.2400   211.4200 c3         1 V7B       0.136600
     43 O1         229.3680   209.6460   214.6260 os         1 V7B      -0.428000
     44 O10        231.7810   210.0000   208.6970 o          1 V7B      -0.482000
     45 O2         227.0190   209.9760   216.4370 oh         1 V7B      -0.711000
     46 O3         227.3040   211.7230   218.5980 oh         1 V7B      -0.741000
     47 O4         229.3040   213.9200   218.3210 os         1 V7B      -0.483000
     48 O49        226.6290   214.1030   219.5700 oh         1 V7B      -0.728000
     49 O5         232.5750   212.4490   217.3340 oh         1 V7B      -0.707000
     50 O50        226.7800   216.9060   220.2900 oh         1 V7B      -0.672000
     51 O51        229.3280   218.1600   220.1530 oh         1 V7B      -0.693000
     52 O52        230.2830   214.5300   220.3640 os         1 V7B      -0.466000
     53 O6         230.3830   211.4630   215.7130 os         1 V7B      -0.460000
     54 O7         230.4060   211.9800   212.8270 os         1 V7B      -0.449100
     55 O9         232.5540   212.8020   212.7910 o          1 V7B      -0.480000
     56 H1         224.4040   217.2810   203.3140 hc         1 V7B       0.037200
     57 H2         225.4180   218.6060   202.7570 hc         1 V7B       0.037200
     58 H3         222.6060   217.6740   201.6530 hc         1 V7B       0.031700
     59 H4         221.8760   219.2780   201.4660 hc         1 V7B       0.031700
     60 H5         223.5430   218.9940   200.9180 hc         1 V7B       0.031700
     61 H6         231.3060   215.1370   212.8260 hc         1 V7B       0.069700
     62 H7         229.6930   214.3240   212.9180 hc         1 V7B       0.069700
     63 H8         227.5590   215.7230   206.8270 hc         1 V7B       0.037700
     64 H9         228.7350   217.0090   206.5700 hc         1 V7B       0.037700
     65 H10        226.0130   216.5840   205.0400 hc         1 V7B       0.037700
     66 H11        227.1560   217.8650   204.6460 hc         1 V7B       0.037700
     67 H12        225.4380   219.5930   205.0450 hc         1 V7B       0.038200
     68 H13        224.2830   218.3840   205.6000 hc         1 V7B       0.038200
     69 H14        223.7710   220.9950   204.2080 hc         1 V7B       0.031700
     70 H15        224.3580   221.0080   202.5290 hc         1 V7B       0.031700
     71 H16        222.6280   221.2140   202.8780 hc         1 V7B       0.031700
     72 H17        230.2760   211.6890   207.3360 hc         1 V7B       0.071200
     73 H18        229.2300   212.0180   208.7660 hc         1 V7B       0.071200
     74 H19        228.1070   209.8600   208.5210 hc         1 V7B       0.055200
     75 H20        229.1980   209.3880   207.2240 hc         1 V7B       0.055200
     76 H21        228.3100   211.2180   205.7690 hc         1 V7B       0.041200
     77 H22        227.0910   210.0400   206.2320 hc         1 V7B       0.041200
     78 H23        227.4300   212.8100   207.5180 hc         1 V7B       0.037700
     79 H24        226.2280   211.6110   207.9970 hc         1 V7B       0.037700
     80 H25        225.5300   214.4550   207.0160 hc         1 V7B       0.038200
     81 H26        224.3110   213.2430   207.4040 hc         1 V7B       0.038200
     82 H27        223.3530   213.4380   205.1000 hc         1 V7B       0.038200
     83 H28        224.6310   214.5560   204.6470 hc         1 V7B       0.038200
     84 H29        223.8000   216.1940   206.3770 hc         1 V7B       0.037200
     85 H30        222.6780   215.8770   205.0600 hc         1 V7B       0.037200
     86 H31        221.3990   214.2930   206.5520 hc         1 V7B       0.038700
     87 H32        222.5120   214.6650   207.8710 hc         1 V7B       0.038700
     88 H33        221.8190   217.0620   207.8160 hc         1 V7B       0.036200
     89 H34        220.7790   216.7430   206.4340 hc         1 V7B       0.036200
     90 H35        219.3760   215.2120   207.8290 hc         1 V7B       0.043700
     91 H36        219.5830   215.2730   210.3370 hc         1 V7B       0.031533
     92 H37        220.9570   214.4700   209.5700 hc         1 V7B       0.031533
     93 H38        221.1280   216.1340   210.1760 hc         1 V7B       0.031533
     94 H39        229.0570   212.8840   220.1210 h2         1 V7B       0.090700
     95 H40        227.7380   214.5690   221.2810 h1         1 V7B       0.061700
     96 H41        228.5460   211.5590   214.7200 h2         1 V7B       0.041700
     97 H42        230.0500   213.5540   210.5230 hc         1 V7B       0.051700
     98 H43        231.4320   214.6410   210.4290 hc         1 V7B       0.051700
     99 H44        229.9220   216.5930   210.8810 hc         1 V7B       0.041200
    100 H45        228.5530   215.4970   211.0800 hc         1 V7B       0.041200
    101 H46        228.8830   214.7060   208.6910 hc         1 V7B       0.037200
    102 H47        230.1550   215.9120   208.4950 hc         1 V7B       0.037200
    103 H48        228.4980   217.7390   208.9440 hc         1 V7B       0.038700
    104 H49        227.2350   216.5340   209.2060 hc         1 V7B       0.038700
    105 H50        226.9910   218.7350   206.9980 hc         1 V7B       0.037200
    106 H51        225.8120   217.4790   207.3790 hc         1 V7B       0.037200
    107 H52        228.9210   209.9380   217.3050 h1         1 V7B       0.069700
    108 H53        222.5560   218.8830   203.8180 hc         1 V7B       0.043700
    109 H54        227.5370   212.6030   216.7300 h1         1 V7B       0.047700
    110 H55        225.2450   211.7100   205.6730 hc         1 V7B       0.037200
    111 H56        226.4480   212.9210   205.2290 hc         1 V7B       0.037200
    112 H57        230.0600   211.9760   218.3640 h1         1 V7B       0.086700
    113 H58        218.7170   217.5860   207.5230 hc         1 V7B       0.031533
    114 H59        218.2210   216.9900   209.1170 hc         1 V7B       0.031533
    115 H60        219.6430   218.0460   208.9690 hc         1 V7B       0.031533
    116 H61        228.0490   216.2640   218.7500 h1         1 V7B       0.070700
    117 H62        229.1480   216.6580   221.5830 h1         1 V7B       0.046700
    118 H63        230.6220   216.0250   218.9450 h1         1 V7B       0.072700
    119 H64        231.6590   216.3490   221.8170 h1         1 V7B       0.029700
    120 H65        232.5650   215.5470   220.5290 h1         1 V7B       0.029700
    121 H66        229.7300   213.4390   215.6860 h1         1 V7B       0.042700
    122 H67        232.1450   213.5160   215.5910 h1         1 V7B       0.032700
    123 H68        231.6250   214.2970   217.0840 h1         1 V7B       0.032700
    124 H69        228.6930   210.1370   212.6910 h1         1 V7B       0.066700
    125 H70        229.7300   208.7140   212.7990 h1         1 V7B       0.066700
    126 H71        231.6050   210.4060   213.5770 h1         1 V7B       0.092700
    127 H72        231.5420   209.1560   211.3470 h1         1 V7B       0.064700
    128 H73        232.3520   210.7280   211.2800 h1         1 V7B       0.064700
    129 H74        226.5050   210.2150   217.2480 ho         1 V7B       0.522000
    130 H75        227.0320   212.6350   218.9250 ho         1 V7B       0.536000
    131 H76        225.8820   214.6790   219.8650 ho         1 V7B       0.517000
    132 H77        233.4700   212.8590   217.3340 ho         1 V7B       0.504000
    133 H78        226.2530   217.1350   219.4900 ho         1 V7B       0.454000
    134 H79        228.4240   218.5180   220.3170 ho         1 V7B       0.517000
    135 H80        233.1700   217.7750   220.8430 ho         1 V7B       0.505000
    136 O8         230.4360   210.6880   210.4230 os         1 V7B      -0.451100
    137 O53        232.3630   217.6040   220.3020 oh         1 V7B      -0.705000
    138 C18        226.2890   217.6200   205.2720 c3         1 V7B      -0.077400
@<TRIPOS>BOND
     1     1     5 1   
     2     1    54 1   
     3     1    55 2   
     4     2     7 1   
     5     2    29 1   
     6     2    56 1   
     7     2    57 1   
     8     3    29 1   
     9     3    58 1   
    10     3    59 1   
    11     3    60 1   
    12     4     9 1   
    13     4    44 2   
    14     4   136 1   
    15     5    23 1   
    16     5    61 1   
    17     5    62 1   
    18     6    26 1   
    19     6    27 1   
    20     6    63 1   
    21     6    64 1   
    22     7    67 1   
    23     7    68 1   
    24     7   138 1   
    25     8    29 1   
    26     8    69 1   
    27     8    70 1   
    28     8    71 1   
    29     9    10 1   
    30     9    72 1   
    31     9    73 1   
    32    10    11 1   
    33    10    74 1   
    34    10    75 1   
    35    11    12 1   
    36    11    76 1   
    37    11    77 1   
    38    12    31 1   
    39    12    78 1   
    40    12    79 1   
    41    13    14 1   
    42    13    31 1   
    43    13    80 1   
    44    13    81 1   
    45    14    15 1   
    46    14    82 1   
    47    14    83 1   
    48    15    16 1   
    49    15    84 1   
    50    15    85 1   
    51    16    17 1   
    52    16    86 1   
    53    16    87 1   
    54    17    18 1   
    55    17    88 1   
    56    17    89 1   
    57    18    19 1   
    58    18    33 1   
    59    18    90 1   
    60    19    91 1   
    61    19    92 1   
    62    19    93 1   
    63    20    21 1   
    64    20    47 1   
    65    20    52 1   
    66    20    94 1   
    67    21    34 1   
    68    21    48 1   
    69    21    95 1   
    70    22    28 1   
    71    22    43 1   
    72    22    53 1   
    73    22    96 1   
    74    23    24 1   
    75    23    97 1   
    76    23    98 1   
    77    24    25 1   
    78    24    99 1   
    79    24   100 1   
    80    25    26 1   
    81    25   101 1   
    82    25   102 1   
    83    26   103 1   
    84    26   104 1   
    85    27   105 1   
    86    27   106 1   
    87    27   138 1   
    88    28    30 1   
    89    28    45 1   
    90    28   107 1   
    91    29   108 1   
    92    30    32 1   
    93    30    46 1   
    94    30   109 1   
    95    31   110 1   
    96    31   111 1   
    97    32    38 1   
    98    32    47 1   
    99    32   112 1   
   100    33   113 1   
   101    33   114 1   
   102    33   115 1   
   103    34    35 1   
   104    34    50 1   
   105    34   116 1   
   106    35    36 1   
   107    35    51 1   
   108    35   117 1   
   109    36    37 1   
   110    36    52 1   
   111    36   118 1   
   112    37   119 1   
   113    37   120 1   
   114    37   137 1   
   115    38    39 1   
   116    38    53 1   
   117    38   121 1   
   118    39    49 1   
   119    39   122 1   
   120    39   123 1   
   121    40    41 1   
   122    40    43 1   
   123    40   124 1   
   124    40   125 1   
   125    41    42 1   
   126    41    54 1   
   127    41   126 1   
   128    42   127 1   
   129    42   128 1   
   130    42   136 1   
   131    45   129 1   
   132    46   130 1   
   133    48   131 1   
   134    49   132 1   
   135    50   133 1   
   136    51   134 1   
   137    65   138 1   
   138    66   138 1   
   139   135   137 1   
@<TRIPOS>SUBSTRUCTURE
     1 V7B         1 TEMP              0 ****  ****    0 ROOT
