@<TRIPOS>MOLECULE
V7C
   26    26     1     0     0
SMALL
abcg2


@<TRIPOS>ATOM
      1 N1          13.3550    11.1290   -47.3950 n1         1 V7C      -0.460000
      2 C7          18.3290    13.5250   -39.4090 ca         1 V7C      -0.087000
      3 C8          17.3540    14.4120   -39.8600 ca         1 V7C      -0.118500
      4 C9          16.4590    14.0180   -40.8450 ca         1 V7C      -0.072000
      5 C1          15.0730    11.9810   -45.6220 c3         1 V7C      -0.034600
      6 C5          17.5180    11.8550   -40.9460 ca         1 V7C      -0.072000
      7 C6          18.4050    12.2460   -39.9500 ca         1 V7C      -0.118500
      8 C4          16.5400    12.7410   -41.4030 ca         1 V7C      -0.151600
      9 C3          15.5470    12.3700   -42.4600 c          1 V7C       0.607700
     10 C2          15.0830    10.9910   -44.4300 c3         1 V7C       0.113000
     11 C10         14.1080    11.5170   -46.6150 c1         1 V7C       0.302900
     12 C           16.4590    12.1660   -46.2560 c3         1 V7C      -0.084100
     13 N           15.9410    11.4400   -43.3580 ns         1 V7C      -0.506900
     14 O           14.4300    12.8900   -42.5070 o          1 V7C      -0.600100
     15 H1          19.0230    13.8290   -38.6360 ha         1 V7C       0.117000
     16 H2          17.2910    15.4080   -39.4410 ha         1 V7C       0.118500
     17 H3          15.6940    14.6970   -41.1950 ha         1 V7C       0.123500
     18 H4          14.7090    12.9440   -45.2550 hc         1 V7C       0.095700
     19 H5          17.5790    10.8500   -41.3420 ha         1 V7C       0.123500
     20 H6          19.1520    11.5490   -39.5930 ha         1 V7C       0.118500
     21 H7          14.0700    10.8770   -44.0480 h1         1 V7C       0.066200
     22 H8          15.4410    10.0190   -44.7690 h1         1 V7C       0.066200
     23 H9          17.1470    12.5520   -45.5050 hc         1 V7C       0.044700
     24 H10         16.8430    11.2150   -46.6270 hc         1 V7C       0.044700
     25 H11         16.4150    12.8750   -47.0810 hc         1 V7C       0.044700
     26 H12         16.8970    11.1250   -43.3530 hn         1 V7C       0.318500
@<TRIPOS>BOND
     1     1    11 3   
     2     2     3 ar  
     3     2     7 ar  
     4     2    15 1   
     5     3     4 ar  
     6     3    16 1   
     7     4     8 ar  
     8     4    17 1   
     9     5    10 1   
    10     5    11 1   
    11     5    12 1   
    12     5    18 1   
    13     6     7 ar  
    14     6     8 ar  
    15     6    19 1   
    16     7    20 1   
    17     8     9 1   
    18     9    13 1   
    19     9    14 2   
    20    10    13 1   
    21    10    21 1   
    22    10    22 1   
    23    12    23 1   
    24    12    24 1   
    25    12    25 1   
    26    13    26 1   
@<TRIPOS>SUBSTRUCTURE
     1 V7C         1 TEMP              0 ****  ****    0 ROOT
