@<TRIPOS>MOLECULE
V7C
   26    26     1     0     0
SMALL
No Charge or Current Charge


@<TRIPOS>ATOM
      1 N1          13.4190    11.0940   -47.5580 n1         1 V7C      -0.460000
      2 C7          18.3820    13.5060   -39.3740 ca         1 V7C      -0.087000
      3 C8          17.2470    14.3080   -39.5690 ca         1 V7C      -0.118500
      4 C9          16.3300    13.9970   -40.5870 ca         1 V7C      -0.072000
      5 C1          15.0830    11.9090   -45.6840 c3         1 V7C      -0.034600
      6 C5          17.6830    12.0770   -41.2210 ca         1 V7C      -0.072000
      7 C6          18.5980    12.3920   -40.2000 ca         1 V7C      -0.118500
      8 C4          16.5310    12.8780   -41.4290 ca         1 V7C      -0.151600
      9 C3          15.5210    12.5750   -42.5170 c          1 V7C       0.607700
     10 C2          14.9210    11.0280   -44.4200 c3         1 V7C       0.113000
     11 C10         14.1550    11.4690   -46.7360 c1         1 V7C       0.302900
     12 C           16.5420    11.9490   -46.2060 c3         1 V7C      -0.084100
     13 N           15.7620    11.4640   -43.2970 ns         1 V7C      -0.506900
     14 O           14.5340    13.2750   -42.7050 o          1 V7C      -0.600100
     15 H1          19.0920    13.7470   -38.5860 ha         1 V7C       0.117000
     16 H2          17.0770    15.1720   -38.9300 ha         1 V7C       0.118500
     17 H3          15.4570    14.6340   -40.7200 ha         1 V7C       0.123500
     18 H4          14.7930    12.9330   -45.4230 hc         1 V7C       0.095700
     19 H5          17.8870    11.2070   -41.8390 ha         1 V7C       0.123500
     20 H6          19.4780    11.7700   -40.0500 ha         1 V7C       0.118500
     21 H7          13.8710    11.0390   -44.0940 h1         1 V7C       0.066200
     22 H8          15.1800     9.9880   -44.6630 h1         1 V7C       0.066200
     23 H9          17.2190    12.3620   -45.4480 hc         1 V7C       0.044700
     24 H10         16.8940    10.9430   -46.4670 hc         1 V7C       0.044700
     25 H11         16.6200    12.5820   -47.0990 hc         1 V7C       0.044700
     26 H12         16.5900    10.9240   -43.0800 hn         1 V7C       0.318500
@<TRIPOS>BOND
     1     1    11 3   
     2     2     3 ar  
     3     2     7 ar  
     4     2    15 1   
     5     3     4 ar  
     6     3    16 1   
     7     4     8 ar  
     8     4    17 1   
     9     5    10 1   
    10     5    11 1   
    11     5    12 1   
    12     5    18 1   
    13     6     7 ar  
    14     6     8 ar  
    15     6    19 1   
    16     7    20 1   
    17     8     9 1   
    18     9    13 1   
    19     9    14 2   
    20    10    13 1   
    21    10    21 1   
    22    10    22 1   
    23    12    23 1   
    24    12    24 1   
    25    12    25 1   
    26    13    26 1   
@<TRIPOS>SUBSTRUCTURE
     1 V7C         1 TEMP              0 ****  ****    0 ROOT
