@<TRIPOS>MOLECULE
V7E
   66    72     1     0     0
SMALL
abcg2


@<TRIPOS>ATOM
      1 P           72.7070    58.7270    31.9570 p5         1 V7E       1.418300
      2 O1P         73.2180    57.5520    31.1640 o          1 V7E      -0.808250
      3 O2P         71.3170    59.2390    31.8180 o          1 V7E      -0.808250
      4 O5          73.0480    58.3390    33.5100 os         1 V7E      -0.616400
      5 C5          72.4890    59.0440    34.5970 c3         1 V7E       0.238100
      6 C4          73.3990    58.9520    35.8000 c5         1 V7E       0.148300
      7 O4          73.6430    57.5900    36.1430 os         1 V7E      -0.452000
      8 C3          74.7840    59.5680    35.6530 c5         1 V7E       0.156300
      9 O3          74.6900    60.9660    35.7860 os         1 V7E      -0.589900
     10 C2          75.5550    58.8280    36.7450 c5         1 V7E       0.120300
     11 O2          76.9330    58.7770    36.6060 oh         1 V7E      -0.750500
     12 C1          74.9340    57.4230    36.6470 c5         1 V7E       0.310800
     13 N9          75.6910    56.5400    35.7750 na         1 V7E      -0.272800
     14 C8          75.6530    56.4560    34.4090 cc         1 V7E       0.457700
     15 N7          76.5040    55.6010    33.9210 nd         1 V7E      -0.565100
     16 C7          77.1530    55.1010    35.0190 ca         1 V7E      -0.072600
     17 C6          78.1770    54.1510    35.1740 ca         1 V7E       0.423400
     18 N6          78.7210    53.4990    34.1390 nv         1 V7E      -1.075900
     19 N1          78.5990    53.8790    36.4130 nb         1 V7E      -0.331500
     20 C10         78.0310    54.5050    37.4410 ca         1 V7E       0.143900
     21 N3          77.0690    55.4100    37.4230 nb         1 V7E      -0.200000
     22 C9          76.6640    55.6760    36.1830 ca         1 V7E       0.126000
     23 P1          76.0090    61.9200    35.5280 p5         1 V7E       1.418300
     24 O1P1        75.5400    63.3240    35.6840 o          1 V7E      -0.808250
     25 O2P1        77.1760    61.3670    36.3050 o          1 V7E      -0.808250
     26 O5'1        76.3730    61.5810    33.9700 os         1 V7E      -0.616400
     27 C5'1        75.6800    62.1640    32.8880 c3         1 V7E       0.238100
     28 C4'1        75.7440    61.2520    31.6840 c5         1 V7E       0.148300
     29 O4'1        77.0980    60.9720    31.3370 os         1 V7E      -0.452000
     30 C3'1        75.0910    59.8850    31.8380 c5         1 V7E       0.156300
     31 O3'1        73.6970    60.0190    31.7050 os         1 V7E      -0.589900
     32 C2'1        75.8120    59.0870    30.7520 c5         1 V7E       0.120300
     33 O2'1        75.8260    57.7090    30.9020 oh         1 V7E      -0.750500
     34 C1'1        77.2320    59.6720    30.8450 c5         1 V7E       0.310800
     35 N91         78.0990    58.9030    31.7220 na         1 V7E      -0.272800
     36 C81         78.1880    58.9530    33.0870 cc         1 V7E       0.457700
     37 N71         79.0330    58.0950    33.5810 nd         1 V7E      -0.565100
     38 C51         79.5230    57.4310    32.4880 ca         1 V7E      -0.072600
     39 C61         80.4630    56.3960    32.3400 ca         1 V7E       0.423400
     40 N61         81.1100    55.8550    33.3790 nv         1 V7E      -1.075900
     41 N11         80.7290    55.9610    31.1050 nb         1 V7E      -0.331500
     42 C21         80.1060    56.5260    30.0720 ca         1 V7E       0.143900
     43 N31         79.2110    57.4970    30.0830 nb         1 V7E      -0.200000
     44 C41         78.9510    57.9160    31.3210 ca         1 V7E       0.126000
     45 H5'A        72.3400    60.1070    34.3800 h1         1 V7E       0.035200
     46 H5          71.5090    58.6270    34.8490 h1         1 V7E       0.035200
     47 H4          72.8820    59.4550    36.6290 h1         1 V7E       0.048700
     48 H3          75.2200    59.3010    34.6840 h1         1 V7E       0.061200
     49 H2          75.2500    59.2520    37.7160 h1         1 V7E       0.035700
     50 HO2         77.2220    59.7200    36.5360 ho         1 V7E       0.589500
     51 H1          74.9060    56.9290    37.6200 h2         1 V7E       0.084700
     52 H8          74.9550    57.0320    33.8220 h5         1 V7E       0.109800
     53 H7          79.5440    52.9400    34.2880 hn         1 V7E       0.490500
     54 HN6         78.5290    53.7960    33.1980 hn         1 V7E       0.490500
     55 H9          78.4150    54.2340    38.4200 h5         1 V7E       0.020100
     56 HC5         74.6220    62.3410    33.1100 h1         1 V7E       0.035200
     57 HC5A        76.1230    63.1330    32.6380 h1         1 V7E       0.035200
     58 HC4         75.2520    61.7820    30.8560 h1         1 V7E       0.048700
     59 HC3         75.3470    59.4490    32.8090 h1         1 V7E       0.061200
     60 HC2         75.3960    59.3940    29.7780 h1         1 V7E       0.035700
     61 HO2A        74.8760    57.4450    30.9570 ho         1 V7E       0.589500
     62 HC1         77.7250    59.6800    29.8700 h2         1 V7E       0.084700
     63 HC8         77.6240    59.6640    33.6690 h5         1 V7E       0.109800
     64 H6          81.6710    55.0320    33.2380 hn         1 V7E       0.490500
     65 H1N6        80.8250    56.0660    34.3190 hn         1 V7E       0.490500
     66 H10         80.3720    56.1310    29.0970 h5         1 V7E       0.020100
@<TRIPOS>BOND
     1     1     2 1   
     2     1     3 1   
     3     1     4 1   
     4     1    31 1   
     5     4     5 1   
     6     5     6 1   
     7     5    45 1   
     8     5    46 1   
     9     6     7 1   
    10     6     8 1   
    11     6    47 1   
    12     7    12 1   
    13     8     9 1   
    14     8    10 1   
    15     8    48 1   
    16     9    23 1   
    17    10    11 1   
    18    10    12 1   
    19    10    49 1   
    20    11    50 1   
    21    12    13 1   
    22    12    51 1   
    23    13    14 1   
    24    13    22 1   
    25    14    15 2   
    26    14    52 1   
    27    15    16 1   
    28    16    17 ar  
    29    16    22 ar  
    30    17    18 1   
    31    17    19 ar  
    32    18    53 1   
    33    18    54 1   
    34    19    20 ar  
    35    20    21 ar  
    36    20    55 1   
    37    21    22 ar  
    38    23    24 1   
    39    23    25 1   
    40    23    26 1   
    41    26    27 1   
    42    27    28 1   
    43    27    56 1   
    44    27    57 1   
    45    28    29 1   
    46    28    30 1   
    47    28    58 1   
    48    29    34 1   
    49    30    31 1   
    50    30    32 1   
    51    30    59 1   
    52    32    33 1   
    53    32    34 1   
    54    32    60 1   
    55    33    61 1   
    56    34    35 1   
    57    34    62 1   
    58    35    36 1   
    59    35    44 1   
    60    36    37 2   
    61    36    63 1   
    62    37    38 1   
    63    38    39 ar  
    64    38    44 ar  
    65    39    40 1   
    66    39    41 ar  
    67    40    64 1   
    68    40    65 1   
    69    41    42 ar  
    70    42    43 ar  
    71    42    66 1   
    72    43    44 ar  
@<TRIPOS>SUBSTRUCTURE
     1 V7E         1 TEMP              0 ****  ****    0 ROOT
