@<TRIPOS>MOLECULE
V7E
   66    72     1     0     0
SMALL
No Charge or Current Charge


@<TRIPOS>ATOM
      1 P           73.4180    57.2500    32.9300 p5         1 V7E       1.418300
      2 O1P         74.1100    56.0660    32.3410 o          1 V7E      -0.808250
      3 O2P         71.9410    57.0660    32.9950 o          1 V7E      -0.808250
      4 O5          74.0280    57.6340    34.3650 os         1 V7E      -0.616400
      5 C5          73.3620    58.6400    35.1430 c3         1 V7E       0.238100
      6 C4          74.3500    59.2850    36.1600 c5         1 V7E       0.148300
      7 O4          74.3830    58.5440    37.4120 os         1 V7E      -0.452000
      8 C3          75.8390    59.4350    35.6860 c5         1 V7E       0.156300
      9 O3          76.0840    60.8280    35.3500 os         1 V7E      -0.589900
     10 C2          76.6400    59.0450    36.9740 c5         1 V7E       0.120300
     11 O2          77.9900    58.6180    36.7170 oh         1 V7E      -0.750500
     12 C1          75.6890    57.9530    37.5730 c5         1 V7E       0.310800
     13 N9          75.6780    56.5890    37.0230 na         1 V7E      -0.272800
     14 C8          76.3780    56.1240    35.9010 cc         1 V7E       0.457700
     15 N7          76.2060    54.7980    35.7240 nd         1 V7E      -0.565100
     16 C7          75.3510    54.4440    36.7710 ca         1 V7E      -0.072600
     17 C6          74.8140    53.1820    37.1050 ca         1 V7E       0.423400
     18 N6          75.0780    52.0520    36.3950 nv         1 V7E      -1.075900
     19 N1          74.0120    53.0280    38.1710 nb         1 V7E      -0.331500
     20 C10         73.7530    54.1490    38.8870 ca         1 V7E       0.143900
     21 N3          74.2220    55.3960    38.6400 nb         1 V7E      -0.200000
     22 C9          75.0250    55.5160    37.5630 ca         1 V7E       0.126000
     23 P1          77.4430    61.2030    34.5630 p5         1 V7E       1.418300
     24 O1P1        77.6550    62.6760    34.4950 o          1 V7E      -0.808250
     25 O2P1        78.6120    60.4900    35.1560 o          1 V7E      -0.808250
     26 O5'1        77.0510    60.5980    33.1280 os         1 V7E      -0.616400
     27 C5'1        76.0580    61.2800    32.3470 c3         1 V7E       0.238100
     28 C4'1        75.3970    60.3030    31.3310 c5         1 V7E       0.148300
     29 O4'1        76.1410    60.2530    30.0800 os         1 V7E      -0.452000
     30 C3'1        75.2190    58.8180    31.8070 c5         1 V7E       0.156300
     31 O3'1        73.8200    58.6000    32.1410 os         1 V7E      -0.589900
     32 C2'1        75.5960    58.0070    30.5220 c5         1 V7E       0.120300
     33 O2'1        75.9980    56.6490    30.7830 oh         1 V7E      -0.750500
     34 C1'1        76.7080    58.9360    29.9230 c5         1 V7E       0.310800
     35 N91         78.0700    58.9230    30.4760 na         1 V7E      -0.272800
     36 C81         78.5190    58.2170    31.6010 cc         1 V7E       0.457700
     37 N71         79.8480    58.3640    31.7810 nd         1 V7E      -0.565100
     38 C51         80.2210    59.2100    30.7330 ca         1 V7E      -0.072600
     39 C61         81.4930    59.7220    30.4000 ca         1 V7E       0.423400
     40 N61         82.6160    59.4390    31.1140 nv         1 V7E      -1.075900
     41 N11         81.6640    60.5180    29.3330 nb         1 V7E      -0.331500
     42 C21         80.5500    60.7970    28.6130 ca         1 V7E       0.143900
     43 N31         79.2940    60.3520    28.8590 nb         1 V7E      -0.200000
     44 C41         79.1560    59.5540    29.9370 ca         1 V7E       0.126000
     45 H5'A        72.9810    59.4400    34.4930 h1         1 V7E       0.035200
     46 H5          72.5090    58.2150    35.6860 h1         1 V7E       0.035200
     47 H4          73.9400    60.2750    36.4040 h1         1 V7E       0.048700
     48 H3          76.0870    58.7890    34.8360 h1         1 V7E       0.061200
     49 H2          76.6610    59.9030    37.6610 h1         1 V7E       0.035700
     50 HO2         78.3810    59.3440    36.1170 ho         1 V7E       0.589500
     51 H1          75.9050    57.8240    38.6410 h2         1 V7E       0.084700
     52 H8          76.9880    56.7660    35.2780 h5         1 V7E       0.109800
     53 H7          74.9010    51.1550    36.8380 hn         1 V7E       0.490500
     54 HN6         75.8380    52.0930    35.7200 hn         1 V7E       0.490500
     55 H9          73.1040    54.0360    39.7530 h5         1 V7E       0.020100
     56 HC5         75.2650    61.6780    32.9940 h1         1 V7E       0.035200
     57 HC5A        76.5010    62.1250    31.8030 h1         1 V7E       0.035200
     58 HC4         74.4160    60.7300    31.0840 h1         1 V7E       0.048700
     59 HC3         75.8580    58.5600    32.6590 h1         1 V7E       0.061200
     60 HC2         74.7400    58.0010    29.8330 h1         1 V7E       0.035700
     61 HO2A        75.2630    56.2730    31.3820 ho         1 V7E       0.589500
     62 HC1         76.8350    58.7150    28.8560 h2         1 V7E       0.084700
     63 HC8         77.8640    57.6210    32.2250 h5         1 V7E       0.109800
     64 H6          83.5180    59.5980    30.6720 hn         1 V7E       0.490500
     65 H1N6        82.5600    58.6820    31.7900 hn         1 V7E       0.490500
     66 H10         80.6770    61.4420    27.7460 h5         1 V7E       0.020100
@<TRIPOS>BOND
     1     1     2 1   
     2     1     3 1   
     3     1     4 1   
     4     1    31 1   
     5     4     5 1   
     6     5     6 1   
     7     5    45 1   
     8     5    46 1   
     9     6     7 1   
    10     6     8 1   
    11     6    47 1   
    12     7    12 1   
    13     8     9 1   
    14     8    10 1   
    15     8    48 1   
    16     9    23 1   
    17    10    11 1   
    18    10    12 1   
    19    10    49 1   
    20    11    50 1   
    21    12    13 1   
    22    12    51 1   
    23    13    14 1   
    24    13    22 1   
    25    14    15 2   
    26    14    52 1   
    27    15    16 1   
    28    16    17 ar  
    29    16    22 ar  
    30    17    18 1   
    31    17    19 ar  
    32    18    53 1   
    33    18    54 1   
    34    19    20 ar  
    35    20    21 ar  
    36    20    55 1   
    37    21    22 ar  
    38    23    24 1   
    39    23    25 1   
    40    23    26 1   
    41    26    27 1   
    42    27    28 1   
    43    27    56 1   
    44    27    57 1   
    45    28    29 1   
    46    28    30 1   
    47    28    58 1   
    48    29    34 1   
    49    30    31 1   
    50    30    32 1   
    51    30    59 1   
    52    32    33 1   
    53    32    34 1   
    54    32    60 1   
    55    33    61 1   
    56    34    35 1   
    57    34    62 1   
    58    35    36 1   
    59    35    44 1   
    60    36    37 2   
    61    36    63 1   
    62    37    38 1   
    63    38    39 ar  
    64    38    44 ar  
    65    39    40 1   
    66    39    41 ar  
    67    40    64 1   
    68    40    65 1   
    69    41    42 ar  
    70    42    43 ar  
    71    42    66 1   
    72    43    44 ar  
@<TRIPOS>SUBSTRUCTURE
     1 V7E         1 TEMP              0 ****  ****    0 ROOT
