@<TRIPOS>MOLECULE
V7G
   76    80     1     0     0
SMALL
abcg2


@<TRIPOS>ATOM
      1 C02          7.9280    30.3590    20.0320 c3         1 V7G       0.150000
      2 C03          8.1560    31.0810    21.3370 cc         1 V7G       0.352200
      3 C05          9.1570    31.7870    23.1790 ca         1 V7G       0.084400
      4 C06         10.1740    31.9620    24.1220 ca         1 V7G      -0.047000
      5 C07          9.8980    32.6690    25.2800 ca         1 V7G      -0.114000
      6 C08          8.6220    33.2050    25.5120 ca         1 V7G      -0.098000
      7 C09          7.5990    33.0400    24.5920 ca         1 V7G      -0.077000
      8 C10          7.8760    32.3280    23.4270 ca         1 V7G      -0.175000
      9 C12          8.1190    28.8420    20.2100 c3         1 V7G       0.113700
     10 C13          7.6290    28.0680    18.9860 c3         1 V7G      -0.067400
     11 C14          7.8190    26.5650    19.1210 c5         1 V7G      -0.153700
     12 C15          9.2700    26.0650    19.1770 c5         1 V7G      -0.090400
     13 C16          9.1970    24.6520    18.5780 c5         1 V7G       0.101000
     14 C18          7.2200    25.7810    17.9560 c          1 V7G       0.560000
     15 C22          7.1960    27.5420    23.6700 c3         1 V7G       0.043700
     16 C23          7.4240    28.6840    24.6660 c3         1 V7G      -0.088400
     17 C24          6.5100    28.6800    25.8960 c3         1 V7G      -0.060700
     18 C25          6.9560    29.7820    26.8590 c3         1 V7G      -0.090100
     19 C26          5.0390    28.8550    25.5170 c3         1 V7G      -0.090100
     20 C29          7.7590    23.8750    24.2790 cc         1 V7G      -0.154300
     21 C30          8.2880    23.6300    25.5280 cd         1 V7G      -0.159200
     22 C31          8.5070    22.2240    25.6150 ca         1 V7G      -0.141800
     23 C32          9.0170    21.3790    26.6230 ca         1 V7G       0.197100
     24 C34          9.9210    21.1740    28.8240 c3         1 V7G       0.147900
     25 C35          9.0990    20.0180    26.3740 ca         1 V7G      -0.240000
     26 C36          8.6780    19.4890    25.1340 ca         1 V7G      -0.042000
     27 C37          8.1720    20.2820    24.1240 ca         1 V7G      -0.167000
     28 C38          8.0920    21.6560    24.3820 ca         1 V7G      -0.001200
     29 N04          9.2730    31.0940    21.9860 nd         1 V7G      -0.489100
     30 N17          8.0490    24.7550    17.6830 ns         1 V7G      -0.514900
     31 N20          7.4480    28.4010    21.4190 ns         1 V7G      -0.501900
     32 N27          7.5110    26.2660    24.2760 ns         1 V7G      -0.472900
     33 N39          7.6450    22.6820    23.5980 na         1 V7G      -0.192700
     34 O01          8.8430    30.7780    19.0280 oh         1 V7G      -0.634000
     35 O19          6.1620    26.0250    17.3800 o          1 V7G      -0.569000
     36 O33          9.3910    21.9870    27.7780 os         1 V7G      -0.345100
     37 O40          6.8080    25.0700    22.4840 o          1 V7G      -0.634100
     38 S11          6.8250    31.9280    22.1040 ss         1 V7G      -0.007200
     39 H1           6.8990    30.5500    19.7100 h1         1 V7G       0.043700
     40 H061        11.1550    31.5410    23.9380 ha         1 V7G       0.139000
     41 H071        10.6750    32.8080    26.0190 ha         1 V7G       0.121000
     42 H081         8.4310    33.7500    26.4270 ha         1 V7G       0.118000
     43 H091         6.6140    33.4460    24.7770 ha         1 V7G       0.125000
     44 H121         9.1820    28.6660    20.3700 h1         1 V7G       0.112700
     45 H131         8.1640    28.4330    18.1070 hc         1 V7G       0.063200
     46 H132         6.5670    28.2830    18.8330 hc         1 V7G       0.063200
     47 H141         7.2840    26.2160    20.0120 hc         1 V7G       0.094700
     48 H151         9.6800    26.0660    20.1840 hc         1 V7G       0.067700
     49 H152         9.8990    26.7000    18.5490 hc         1 V7G       0.067700
     50 H162         9.0180    23.8970    19.3500 h1         1 V7G       0.044700
     51 H161        10.0960    24.3780    18.0280 h1         1 V7G       0.044700
     52 H221         6.1530    27.5240    23.3520 h1         1 V7G       0.073700
     53 H231         8.4710    28.6540    24.9820 hc         1 V7G       0.061200
     54 H232         7.2850    29.6260    24.1310 hc         1 V7G       0.061200
     55 H241         6.6200    27.7190    26.4090 hc         1 V7G       0.047700
     56 H253         6.3380    29.7880    27.7590 hc         1 V7G       0.035867
     57 H251         7.9970    29.6440    27.1610 hc         1 V7G       0.035867
     58 H252         6.8730    30.7630    26.3850 hc         1 V7G       0.035867
     59 H262         4.4130    28.8900    26.4100 hc         1 V7G       0.035867
     60 H263         4.8960    29.7910    24.9680 hc         1 V7G       0.035867
     61 H261         4.6760    28.0390    24.8900 hc         1 V7G       0.035867
     62 H301         8.4900    24.3600    26.2940 ha         1 V7G       0.208000
     63 H343        10.1550    21.8530    29.6400 h1         1 V7G       0.043033
     64 H342         9.1860    20.4370    29.1560 h1         1 V7G       0.043033
     65 H341        10.8290    20.6620    28.4970 h1         1 V7G       0.043033
     66 H351         9.4860    19.3450    27.1230 ha         1 V7G       0.116000
     67 H361         8.7590    18.4210    24.9800 ha         1 V7G       0.111000
     68 H371         7.8530    19.8660    23.1780 ha         1 V7G       0.120000
     69 H171         7.7880    24.0250    17.0370 hn         1 V7G       0.324500
     70 H201         6.4490    28.5300    21.4790 hn         1 V7G       0.315500
     71 H271         8.0540    26.2610    25.1240 hn         1 V7G       0.330500
     72 H391         7.2770    22.6070    22.6620 hn         1 V7G       0.371000
     73 H011         8.6300    31.6860    18.7750 ho         1 V7G       0.451000
     74 C21          8.0770    27.7930    22.4410 c          1 V7G       0.589100
     75 C28          7.3250    25.1090    23.6070 c          1 V7G       0.633300
     76 O41          9.2720    27.5110    22.4420 o          1 V7G      -0.594100
@<TRIPOS>BOND
     1     1     2 1   
     2     1     9 1   
     3     1    34 1   
     4     1    39 1   
     5     2    29 2   
     6     2    38 1   
     7     3     4 ar  
     8     3     8 ar  
     9     3    29 1   
    10     4     5 ar  
    11     4    40 1   
    12     5     6 ar  
    13     5    41 1   
    14     6     7 ar  
    15     6    42 1   
    16     7     8 ar  
    17     7    43 1   
    18     8    38 1   
    19     9    10 1   
    20     9    31 1   
    21     9    44 1   
    22    10    11 1   
    23    10    45 1   
    24    10    46 1   
    25    11    12 1   
    26    11    14 1   
    27    11    47 1   
    28    12    13 1   
    29    12    48 1   
    30    12    49 1   
    31    13    30 1   
    32    13    50 1   
    33    13    51 1   
    34    14    30 1   
    35    14    35 2   
    36    15    16 1   
    37    15    32 1   
    38    15    52 1   
    39    15    74 1   
    40    16    17 1   
    41    16    53 1   
    42    16    54 1   
    43    17    18 1   
    44    17    19 1   
    45    17    55 1   
    46    18    56 1   
    47    18    57 1   
    48    18    58 1   
    49    19    59 1   
    50    19    60 1   
    51    19    61 1   
    52    20    21 2   
    53    20    33 1   
    54    20    75 1   
    55    21    22 1   
    56    21    62 1   
    57    22    23 ar  
    58    22    28 ar  
    59    23    25 ar  
    60    23    36 1   
    61    24    36 1   
    62    24    63 1   
    63    24    64 1   
    64    24    65 1   
    65    25    26 ar  
    66    25    66 1   
    67    26    27 ar  
    68    26    67 1   
    69    27    28 ar  
    70    27    68 1   
    71    28    33 1   
    72    30    69 1   
    73    31    70 1   
    74    31    74 1   
    75    32    71 1   
    76    32    75 1   
    77    33    72 1   
    78    34    73 1   
    79    37    75 2   
    80    74    76 2   
@<TRIPOS>SUBSTRUCTURE
     1 V7G         1 TEMP              0 ****  ****    0 ROOT
