@<TRIPOS>MOLECULE
V7G
   76    80     1     0     0
SMALL
No Charge or Current Charge


@<TRIPOS>ATOM
      1 C02          8.5700    30.6050    20.3440 c3         1 V7G       0.150000
      2 C03          8.7160    30.9780    21.8150 cc         1 V7G       0.352200
      3 C05          9.4880    30.9840    23.8770 ca         1 V7G       0.084400
      4 C06         10.3330    30.7090    24.9650 ca         1 V7G      -0.047000
      5 C07          9.9600    31.1370    26.2560 ca         1 V7G      -0.114000
      6 C08          8.7500    31.8350    26.4500 ca         1 V7G      -0.098000
      7 C09          7.9110    32.1080    25.3530 ca         1 V7G      -0.077000
      8 C10          8.3080    31.6700    24.0800 ca         1 V7G      -0.175000
      9 C12          8.4660    29.0620    20.1340 c3         1 V7G       0.113700
     10 C13          8.0350    28.6750    18.6940 c3         1 V7G      -0.067400
     11 C14          7.9740    27.1470    18.4060 c5         1 V7G      -0.153700
     12 C15          9.3300    26.3960    18.5340 c5         1 V7G      -0.090400
     13 C16          9.0530    25.1170    17.7000 c5         1 V7G       0.101000
     14 C18          7.5360    26.8050    16.9760 c          1 V7G       0.560000
     15 C22          6.8530    27.1900    23.1400 c3         1 V7G       0.043700
     16 C23          6.6300    28.3760    24.1210 c3         1 V7G      -0.088400
     17 C24          5.4790    28.2180    25.1510 c3         1 V7G      -0.060700
     18 C25          5.5270    29.3520    26.2010 c3         1 V7G      -0.090100
     19 C26          4.0870    28.1610    24.4780 c3         1 V7G      -0.090100
     20 C29          7.0750    23.8080    24.9320 cc         1 V7G      -0.154300
     21 C30          8.3980    23.7630    25.3770 cd         1 V7G      -0.159200
     22 C31          8.6500    22.5340    26.0880 ca         1 V7G      -0.141800
     23 C32          9.8010    22.0340    26.7120 ca         1 V7G       0.197100
     24 C34         12.1710    22.3250    27.3180 c3         1 V7G       0.147900
     25 C35          9.7050    20.7640    27.3330 ca         1 V7G      -0.240000
     26 C36          8.4820    20.0480    27.3110 ca         1 V7G      -0.042000
     27 C37          7.3460    20.5900    26.6710 ca         1 V7G      -0.167000
     28 C38          7.4720    21.8460    26.0660 ca         1 V7G      -0.001200
     29 N04          9.7520    30.5830    22.5740 nd         1 V7G      -0.489100
     30 N17          8.2170    25.6680    16.6360 ns         1 V7G      -0.514900
     31 N20          7.5570    28.4500    21.1220 ns         1 V7G      -0.501900
     32 N27          7.2480    25.9660    23.8730 ns         1 V7G      -0.472900
     33 N39          6.5200    22.5870    25.3830 na         1 V7G      -0.192700
     34 O01          9.6420    31.1400    19.5310 oh         1 V7G      -0.634000
     35 O19          6.9100    27.4750    16.1700 o          1 V7G      -0.569000
     36 O33         10.9590    22.7850    26.6960 os         1 V7G      -0.345100
     37 O40          5.2530    24.8640    23.8150 o          1 V7G      -0.634100
     38 S11          7.4060    31.8980    22.5950 ss         1 V7G      -0.007200
     39 H1           7.6200    31.0380    20.0040 h1         1 V7G       0.043700
     40 H061        11.2620    30.1660    24.8120 ha         1 V7G       0.139000
     41 H071        10.6070    30.9260    27.1050 ha         1 V7G       0.121000
     42 H081         8.4630    32.1620    27.4470 ha         1 V7G       0.118000
     43 H091         6.9750    32.6450    25.4910 ha         1 V7G       0.125000
     44 H121         9.4760    28.6600    20.2950 h1         1 V7G       0.112700
     45 H131         8.7230    29.1440    17.9800 hc         1 V7G       0.063200
     46 H132         7.0500    29.1180    18.4970 hc         1 V7G       0.063200
     47 H141         7.2510    26.6700    19.0770 hc         1 V7G       0.094700
     48 H151         9.6070    26.1700    19.5700 hc         1 V7G       0.067700
     49 H152        10.1500    26.9750    18.0930 hc         1 V7G       0.067700
     50 H162         8.5080    24.3640    18.2860 h1         1 V7G       0.044700
     51 H161         9.9790    24.6620    17.3230 h1         1 V7G       0.044700
     52 H221         5.9330    26.9970    22.5750 h1         1 V7G       0.073700
     53 H231         7.5700    28.5540    24.6600 hc         1 V7G       0.061200
     54 H232         6.4400    29.2850    23.5400 hc         1 V7G       0.061200
     55 H241         5.6280    27.2760    25.6930 hc         1 V7G       0.047700
     56 H253         4.7450    29.2150    26.9570 hc         1 V7G       0.035867
     57 H251         6.4950    29.3650    26.7160 hc         1 V7G       0.035867
     58 H252         5.3790    30.3300    25.7270 hc         1 V7G       0.035867
     59 H262         3.2990    28.0460    25.2320 hc         1 V7G       0.035867
     60 H263         3.8880    29.0810    23.9150 hc         1 V7G       0.035867
     61 H261         4.0100    27.3150    23.7880 hc         1 V7G       0.035867
     62 H301         9.1480    24.5350    25.2220 ha         1 V7G       0.208000
     63 H343        12.9690    23.0670    27.1920 h1         1 V7G       0.043033
     64 H342        12.0210    22.1670    28.3940 h1         1 V7G       0.043033
     65 H341        12.5080    21.3830    26.8670 h1         1 V7G       0.043033
     66 H351        10.5590    20.3180    27.8340 ha         1 V7G       0.116000
     67 H361         8.4160    19.0730    27.7910 ha         1 V7G       0.111000
     68 H371         6.4040    20.0470    26.6500 ha         1 V7G       0.120000
     69 H171         8.1360    25.3100    15.6910 hn         1 V7G       0.324500
     70 H201         6.5880    28.7450    21.1360 hn         1 V7G       0.315500
     71 H271         8.2140    25.8790    24.1600 hn         1 V7G       0.330500
     72 H391         5.5600    22.2940    25.2290 hn         1 V7G       0.371000
     73 H011         9.6790    32.1100    19.6860 ho         1 V7G       0.451000
     74 C21          7.9510    27.5550    22.1000 c          1 V7G       0.589100
     75 C28          6.4240    24.9030    24.1660 c          1 V7G       0.633300
     76 O41          9.0850    27.0950    22.1430 o          1 V7G      -0.594100
@<TRIPOS>BOND
     1     1     2 1   
     2     1     9 1   
     3     1    34 1   
     4     1    39 1   
     5     2    29 2   
     6     2    38 1   
     7     3     4 ar  
     8     3     8 ar  
     9     3    29 1   
    10     4     5 ar  
    11     4    40 1   
    12     5     6 ar  
    13     5    41 1   
    14     6     7 ar  
    15     6    42 1   
    16     7     8 ar  
    17     7    43 1   
    18     8    38 1   
    19     9    10 1   
    20     9    31 1   
    21     9    44 1   
    22    10    11 1   
    23    10    45 1   
    24    10    46 1   
    25    11    12 1   
    26    11    14 1   
    27    11    47 1   
    28    12    13 1   
    29    12    48 1   
    30    12    49 1   
    31    13    30 1   
    32    13    50 1   
    33    13    51 1   
    34    14    30 1   
    35    14    35 2   
    36    15    16 1   
    37    15    32 1   
    38    15    52 1   
    39    15    74 1   
    40    16    17 1   
    41    16    53 1   
    42    16    54 1   
    43    17    18 1   
    44    17    19 1   
    45    17    55 1   
    46    18    56 1   
    47    18    57 1   
    48    18    58 1   
    49    19    59 1   
    50    19    60 1   
    51    19    61 1   
    52    20    21 2   
    53    20    33 1   
    54    20    75 1   
    55    21    22 1   
    56    21    62 1   
    57    22    23 ar  
    58    22    28 ar  
    59    23    25 ar  
    60    23    36 1   
    61    24    36 1   
    62    24    63 1   
    63    24    64 1   
    64    24    65 1   
    65    25    26 ar  
    66    25    66 1   
    67    26    27 ar  
    68    26    67 1   
    69    27    28 ar  
    70    27    68 1   
    71    28    33 1   
    72    30    69 1   
    73    31    70 1   
    74    31    74 1   
    75    32    71 1   
    76    32    75 1   
    77    33    72 1   
    78    34    73 1   
    79    37    75 2   
    80    74    76 2   
@<TRIPOS>SUBSTRUCTURE
     1 V7G         1 TEMP              0 ****  ****    0 ROOT
