@<TRIPOS>MOLECULE
V7H
   63    66     1     0     0
SMALL
abcg2


@<TRIPOS>ATOM
      1 C35          8.4870    -4.0820     0.9830 ca         1 V7H      -0.116000
      2 C25          4.2360     2.0560     2.6040 ca         1 V7H      -0.136000
      3 C34          7.1290    -3.8570     1.1780 ca         1 V7H      -0.117500
      4 C36          9.1620    -3.3820    -0.0060 ca         1 V7H      -0.117500
      5 C24          3.0940     2.7970     2.3310 ca         1 V7H      -0.097000
      6 C26          4.6790     1.1190     1.6840 ca         1 V7H      -0.116000
      7 C33          6.4520    -2.9420     0.3860 ca         1 V7H      -0.097000
      8 C37          8.4820    -2.4610    -0.7950 ca         1 V7H      -0.097000
      9 C23          2.4130     2.6020     1.1390 ca         1 V7H      -0.064000
     10 C2          -2.0260    -0.8780    -1.8400 ca         1 V7H      -0.134000
     11 C3          -3.3130    -1.1800    -1.4190 ca         1 V7H      -0.150000
     12 C27          3.9890     0.9160     0.4880 ca         1 V7H      -0.164600
     13 C6          -2.0910     1.2180    -0.6520 ca         1 V7H      -0.086600
     14 C32          7.1230    -2.2330    -0.6100 ca         1 V7H      -0.104300
     15 C22          2.8530     1.6770     0.1960 ca         1 V7H      -0.014300
     16 C1          -1.4150     0.3190    -1.4860 ca         1 V7H      -0.087300
     17 C4          -4.0010    -0.2820    -0.6190 ca         1 V7H       0.054100
     18 C5          -3.3810     0.9120    -0.2320 ca         1 V7H       0.063100
     19 C28          4.4260    -0.1930    -0.4170 c          1 V7H       0.617700
     20 C16         -9.4970    -1.3430     0.6170 c          1 V7H       0.716000
     21 C11         -5.1890     1.3200     1.1940 c6         1 V7H       0.118600
     22 C12         -6.0420     0.4960     0.2520 c6         1 V7H       0.126300
     23 C31          6.3860    -1.2430    -1.4790 c3         1 V7H       0.145300
     24 C21          2.0660     1.5290    -1.0800 c3         1 V7H       0.211100
     25 C19         -0.0210     0.6300    -1.9610 c3         1 V7H       0.228100
     26 C14         -7.2790    -0.0540     0.9310 c3         1 V7H      -0.047400
     27 N30          5.7340    -0.2000    -0.7180 ns         1 V7H      -0.511900
     28 N20          0.8910     0.7200    -0.8370 n7         1 V7H      -0.838400
     29 O9          -1.2610     2.6790     1.0070 o          1 V7H      -0.730000
     30 O18         -9.7820    -0.9530     1.7660 o          1 V7H      -0.753000
     31 O29          3.6340    -1.0370    -0.8180 o          1 V7H      -0.598100
     32 O8          -1.2150     3.3530    -1.1190 o          1 V7H      -0.730000
     33 O17        -10.1980    -2.0760    -0.1110 o          1 V7H      -0.753000
     34 O10         -4.0400     1.8190     0.5340 os         1 V7H      -0.308100
     35 O13         -5.2640    -0.5940    -0.2340 os         1 V7H      -0.340100
     36 H35          9.0150    -4.7980     1.6000 ha         1 V7H       0.103000
     37 H34          6.5930    -4.4000     1.9460 ha         1 V7H       0.108000
     38 H36         10.2200    -3.5470    -0.1640 ha         1 V7H       0.108000
     39 H25          4.7730     2.1970     3.5330 ha         1 V7H       0.096000
     40 H24          2.7320     3.5220     3.0480 ha         1 V7H       0.114000
     41 H26          5.5540     0.5230     1.9150 ha         1 V7H       0.094000
     42 H33          5.3920    -2.7830     0.5430 ha         1 V7H       0.121000
     43 H37          9.0180    -1.9150    -1.5620 ha         1 V7H       0.121000
     44 H23          1.5130     3.1670     0.9300 ha         1 V7H       0.180000
     45 H2          -1.4930    -1.5840    -2.4660 ha         1 V7H       0.080000
     46 H3          -3.7900    -2.1080    -1.7100 ha         1 V7H       0.103000
     47 H311         7.0800    -0.7730    -2.1770 h1         1 V7H       0.060200
     48 H312         5.6310    -1.7530    -2.0770 h1         1 V7H       0.060200
     49 H211         1.7180     2.5210    -1.3800 h1         1 V7H       0.034200
     50 H212         2.7040     1.1630    -1.8960 h1         1 V7H       0.034200
     51 H191         0.2870    -0.1140    -2.7090 h1         1 V7H       0.028200
     52 H192        -0.0230     1.5950    -2.4710 h1         1 V7H       0.028200
     53 H30          6.3160     0.5420    -0.3630 hn         1 V7H       0.314500
     54 H151        -7.6200    -1.7710    -0.3350 hc         1 V7H       0.026200
     55 H152        -8.3790    -0.3120    -0.8990 hc         1 V7H       0.026200
     56 H111        -5.7470     2.1840     1.5540 h1         1 V7H       0.051200
     57 H112        -4.8990     0.7150     2.0620 h1         1 V7H       0.051200
     58 H12         -6.3390     1.1240    -0.6000 h1         1 V7H       0.043700
     59 H141        -6.9820    -0.6360     1.8090 hc         1 V7H       0.045200
     60 H142        -7.8480     0.7980     1.3110 hc         1 V7H       0.045200
     61 H20          1.1790    -0.2080    -0.5530 hn         1 V7H       0.413000
     62 C15         -8.1580    -0.8840     0.0100 c3         1 V7H      -0.202400
     63 C7          -1.4560     2.5350    -0.2100 c          1 V7H       0.742600
@<TRIPOS>BOND
     1     1     3 ar  
     2     1     4 ar  
     3     1    36 1   
     4     2     5 ar  
     5     2     6 ar  
     6     2    39 1   
     7     3     7 ar  
     8     3    37 1   
     9     4     8 ar  
    10     4    38 1   
    11     5     9 ar  
    12     5    40 1   
    13     6    12 ar  
    14     6    41 1   
    15     7    14 ar  
    16     7    42 1   
    17     8    14 ar  
    18     8    43 1   
    19     9    15 ar  
    20     9    44 1   
    21    10    11 ar  
    22    10    16 ar  
    23    10    45 1   
    24    11    17 ar  
    25    11    46 1   
    26    12    15 ar  
    27    12    19 1   
    28    13    16 ar  
    29    13    18 ar  
    30    13    63 1   
    31    14    23 1   
    32    15    24 1   
    33    16    25 1   
    34    17    18 ar  
    35    17    35 1   
    36    18    34 1   
    37    19    27 1   
    38    19    31 2   
    39    20    30 1   
    40    20    33 1   
    41    20    62 1   
    42    21    22 1   
    43    21    34 1   
    44    21    56 1   
    45    21    57 1   
    46    22    26 1   
    47    22    35 1   
    48    22    58 1   
    49    23    27 1   
    50    23    47 1   
    51    23    48 1   
    52    24    28 1   
    53    24    49 1   
    54    24    50 1   
    55    25    28 1   
    56    25    51 1   
    57    25    52 1   
    58    26    59 1   
    59    26    60 1   
    60    26    62 1   
    61    27    53 1   
    62    28    61 1   
    63    29    63 1   
    64    32    63 1   
    65    54    62 1   
    66    55    62 1   
@<TRIPOS>SUBSTRUCTURE
     1 V7H         1 TEMP              0 ****  ****    0 ROOT
