@<TRIPOS>MOLECULE
V7H
   63    66     1     0     0
SMALL
No Charge or Current Charge


@<TRIPOS>ATOM
      1 C35          8.1760    -4.7000     0.2020 ca         1 V7H      -0.116000
      2 C25          5.2060     2.3350     2.5410 ca         1 V7H      -0.136000
      3 C34          7.0960    -4.7420     1.1000 ca         1 V7H      -0.117500
      4 C36          8.0980    -3.9030    -0.9520 ca         1 V7H      -0.117500
      5 C24          4.5800     3.5440     2.2190 ca         1 V7H      -0.097000
      6 C26          4.9240     1.1780     1.8010 ca         1 V7H      -0.116000
      7 C33          5.9370    -3.9880     0.8430 ca         1 V7H      -0.097000
      8 C37          6.9400    -3.1490    -1.2100 ca         1 V7H      -0.097000
      9 C23          3.6750     3.5960     1.1490 ca         1 V7H      -0.064000
     10 C2          -1.2210     0.0660    -1.3040 ca         1 V7H      -0.134000
     11 C3          -2.3830    -0.6500    -0.9790 ca         1 V7H      -0.150000
     12 C27          4.0070     1.2020     0.7170 ca         1 V7H      -0.164600
     13 C6          -2.3410     2.1700    -0.7500 ca         1 V7H      -0.086600
     14 C32          5.8520    -3.1890    -0.3150 ca         1 V7H      -0.104300
     15 C22          3.3800     2.4440     0.3870 ca         1 V7H      -0.014300
     16 C1          -1.1880     1.4730    -1.2000 ca         1 V7H      -0.087300
     17 C4          -3.5280     0.0330    -0.5480 ca         1 V7H       0.054100
     18 C5          -3.5050     1.4450    -0.4170 ca         1 V7H       0.063100
     19 C28          3.7170    -0.0870    -0.0390 c          1 V7H       0.617700
     20 C16         -8.4240    -2.9600     0.4170 c          1 V7H       0.716000
     21 C11         -5.6670     1.3390     0.6610 c6         1 V7H       0.118600
     22 C12         -5.9110     0.0400    -0.1430 c6         1 V7H       0.126300
     23 C31          4.6020    -2.3690    -0.5890 c3         1 V7H       0.145300
     24 C21          2.4230     2.6150    -0.7970 c3         1 V7H       0.211100
     25 C19          0.1030     2.2020    -1.5710 c3         1 V7H       0.228100
     26 C14         -6.9660    -0.8920     0.5200 c3         1 V7H      -0.047400
     27 N30          4.6950    -1.0510     0.0300 ns         1 V7H      -0.511900
     28 N20          1.0910     2.0720    -0.4910 n7         1 V7H      -0.838400
     29 O9          -2.1790     4.1630     0.4880 o          1 V7H      -0.730000
     30 O18         -9.5870    -2.6840     0.1670 o          1 V7H      -0.753000
     31 O29          2.6700    -0.3060    -0.6320 o          1 V7H      -0.598100
     32 O8          -2.5230     4.3350    -1.6350 o          1 V7H      -0.730000
     33 O17         -8.0910    -3.7980     1.2410 o          1 V7H      -0.753000
     34 O10         -4.6290     2.1170     0.0300 os         1 V7H      -0.308100
     35 O13         -4.6700    -0.6890    -0.2600 os         1 V7H      -0.340100
     36 H35          9.0720    -5.2840     0.4020 ha         1 V7H       0.103000
     37 H34          7.1560    -5.3570     1.9950 ha         1 V7H       0.108000
     38 H36          8.9340    -3.8690    -1.6470 ha         1 V7H       0.108000
     39 H25          5.9060     2.2920     3.3730 ha         1 V7H       0.096000
     40 H24          4.7960     4.4420     2.7940 ha         1 V7H       0.114000
     41 H26          5.4110     0.2540     2.1010 ha         1 V7H       0.094000
     42 H33          5.1060    -4.0230     1.5440 ha         1 V7H       0.121000
     43 H37          6.8880    -2.5320    -2.1050 ha         1 V7H       0.121000
     44 H23          3.1990     4.5440     0.9050 ha         1 V7H       0.180000
     45 H2          -0.3400    -0.4740    -1.6420 ha         1 V7H       0.080000
     46 H3          -2.4000    -1.7330    -1.0710 ha         1 V7H       0.103000
     47 H311         4.4650    -2.2470    -1.6720 h1         1 V7H       0.060200
     48 H312         3.7200    -2.8900    -0.1920 h1         1 V7H       0.060200
     49 H211         2.3440     3.6820    -1.0480 h1         1 V7H       0.034200
     50 H212         2.8500     2.1170    -1.6780 h1         1 V7H       0.034200
     51 H191         0.4980     1.7570    -2.4950 h1         1 V7H       0.028200
     52 H192        -0.0930     3.2600    -1.7850 h1         1 V7H       0.028200
     53 H30          5.5400    -0.8120     0.5310 hn         1 V7H       0.314500
     54 H151        -6.3990    -2.7560    -0.3540 hc         1 V7H       0.026200
     55 H152        -7.6760    -1.8040    -1.2700 hc         1 V7H       0.026200
     56 H111        -6.5850     1.9400     0.7180 h1         1 V7H       0.051200
     57 H112        -5.3520     1.0890     1.6840 h1         1 V7H       0.051200
     58 H12         -6.2550     0.3090    -1.1520 h1         1 V7H       0.043700
     59 H141        -6.6160    -1.1930     1.5150 hc         1 V7H       0.045200
     60 H142        -7.8880    -0.3210     0.6830 hc         1 V7H       0.045200
     61 H20          1.2410     1.0630    -0.3490 hn         1 V7H       0.413000
     62 C15         -7.3200    -2.1630    -0.2970 c3         1 V7H      -0.202400
     63 C7          -2.3500     3.6710    -0.6210 c          1 V7H       0.742600
@<TRIPOS>BOND
     1     1     3 ar  
     2     1     4 ar  
     3     1    36 1   
     4     2     5 ar  
     5     2     6 ar  
     6     2    39 1   
     7     3     7 ar  
     8     3    37 1   
     9     4     8 ar  
    10     4    38 1   
    11     5     9 ar  
    12     5    40 1   
    13     6    12 ar  
    14     6    41 1   
    15     7    14 ar  
    16     7    42 1   
    17     8    14 ar  
    18     8    43 1   
    19     9    15 ar  
    20     9    44 1   
    21    10    11 ar  
    22    10    16 ar  
    23    10    45 1   
    24    11    17 ar  
    25    11    46 1   
    26    12    15 ar  
    27    12    19 1   
    28    13    16 ar  
    29    13    18 ar  
    30    13    63 1   
    31    14    23 1   
    32    15    24 1   
    33    16    25 1   
    34    17    18 ar  
    35    17    35 1   
    36    18    34 1   
    37    19    27 1   
    38    19    31 2   
    39    20    30 1   
    40    20    33 1   
    41    20    62 1   
    42    21    22 1   
    43    21    34 1   
    44    21    56 1   
    45    21    57 1   
    46    22    26 1   
    47    22    35 1   
    48    22    58 1   
    49    23    27 1   
    50    23    47 1   
    51    23    48 1   
    52    24    28 1   
    53    24    49 1   
    54    24    50 1   
    55    25    28 1   
    56    25    51 1   
    57    25    52 1   
    58    26    59 1   
    59    26    60 1   
    60    26    62 1   
    61    27    53 1   
    62    28    61 1   
    63    29    63 1   
    64    32    63 1   
    65    54    62 1   
    66    55    62 1   
@<TRIPOS>SUBSTRUCTURE
     1 V7H         1 TEMP              0 ****  ****    0 ROOT
