@<TRIPOS>MOLECULE
V7I
   52    56     1     0     0
SMALL
No Charge or Current Charge


@<TRIPOS>ATOM
      1 N1          19.6330     6.5290    -3.8380 na         1 V7I       0.136800
      2 N3          19.2780     7.3420     0.6130 nc         1 V7I      -0.767000
      3 C4          18.7940     6.0410    -2.8290 cd         1 V7I      -0.150000
      4 C5          19.6040     6.1440    -5.2560 c3         1 V7I       0.072900
      5 C6          20.2650     7.5340    -2.0880 cc         1 V7I       0.285900
      6 C7          18.7880     7.2050     1.8370 cd         1 V7I       0.648300
      7 C8          20.6550     8.4090     2.8930 cy         1 V7I       0.185000
      8 C10         20.8940     9.4870     4.0150 cy         1 V7I      -0.089700
      9 C13         22.2240    14.1250     3.2130 c3         1 V7I      -0.151400
     10 C15         20.6600    11.8360     4.4130 c5         1 V7I       0.106000
     11 C17         20.9820     9.5600     1.8800 cy         1 V7I      -0.095400
     12 C20         17.0200     6.0090     3.2250 cc         1 V7I      -0.338600
     13 C1          17.6230     5.6700    -0.1840 cd         1 V7I      -0.185000
     14 C11         21.7980    10.2300     3.0300 cy         1 V7I       0.093700
     15 C14         21.2110    14.7750     2.2460 c3         1 V7I      -0.078100
     16 C16         19.8280    10.4990     4.4820 c5         1 V7I      -0.079400
     17 C18         17.7120     6.3290     2.0930 cd         1 V7I      -0.178000
     18 C19         16.0610     5.0570     2.7960 cc         1 V7I       0.353500
     19 C2          18.6820     6.5620    -0.3740 cc         1 V7I       0.455500
     20 C3          19.2100     6.6950    -1.7030 cc         1 V7I      -0.265500
     21 C9          21.6080     7.1920     2.9300 c3         1 V7I      -0.105100
     22 N2          20.5520     7.4630    -3.3730 nd         1 V7I      -0.528800
     23 N4          21.6370    11.6470     3.2890 n          1 V7I      -0.412800
     24 N5          17.1550     5.5870     1.1110 na         1 V7I       0.352400
     25 N6          16.1130     4.7710     1.4970 nd         1 V7I      -0.565100
     26 O2          23.4200    12.3840     2.0640 o          1 V7I      -0.604100
     27 H2          18.0170     5.3060    -3.0070 h4         1 V7I       0.154000
     28 H3          20.5680     5.7040    -5.5350 h1         1 V7I       0.058367
     29 H5          18.8080     5.4100    -5.4250 h1         1 V7I       0.058367
     30 H4          19.4150     7.0310    -5.8720 h1         1 V7I       0.058367
     31 H6          20.8420     8.2040    -1.4620 h4         1 V7I       0.052100
     32 H10         21.4390     9.0920     4.8790 hc         1 V7I       0.077700
     33 H13         21.7910    14.1870     4.2160 hc         1 V7I       0.054200
     34 H12         23.1600    14.6960     3.1730 hc         1 V7I       0.054200
     35 H17         21.2010    12.0040     5.3540 h1         1 V7I       0.045700
     36 H18         20.0000    12.6960     4.2450 h1         1 V7I       0.045700
     37 H22         20.1100    10.1340     1.5500 hc         1 V7I       0.078200
     38 H21         21.5600     9.2690     0.9970 hc         1 V7I       0.078200
     39 H24         17.1510     6.3830     4.2370 ha         1 V7I       0.223000
     40 H1          17.1480     5.0590    -0.9350 h4         1 V7I       0.165000
     41 H11         22.8500     9.9190     3.0750 h1         1 V7I       0.082700
     42 H16         21.0200    15.8160     2.5320 hc         1 V7I       0.042033
     43 H15         21.5950    14.7670     1.2190 hc         1 V7I       0.042033
     44 H14         20.2560    14.2350     2.2600 hc         1 V7I       0.042033
     45 H19         19.4340    10.2970     5.4840 hc         1 V7I       0.062700
     46 H20         18.9730    10.5430     3.7980 hc         1 V7I       0.062700
     47 H23         15.3190     4.5600     3.4080 h4         1 V7I       0.047800
     48 H8          22.6470     7.4980     3.1000 hc         1 V7I       0.052700
     49 H9          21.3320     6.5040     3.7380 hc         1 V7I       0.052700
     50 H7          21.5870     6.6330     1.9870 hc         1 V7I       0.052700
     51 O1          19.2970     7.9410     2.8770 os         1 V7I      -0.444300
     52 C12         22.5010    12.6600     2.8250 c          1 V7I       0.606100
@<TRIPOS>BOND
     1     1     3 1   
     2     1     4 1   
     3     1    22 1   
     4     2     6 2   
     5     2    19 1   
     6     3    20 2   
     7     3    27 1   
     8     4    28 1   
     9     4    29 1   
    10     4    30 1   
    11     5    20 1   
    12     5    22 2   
    13     5    31 1   
    14     6    17 1   
    15     6    51 1   
    16     7     8 1   
    17     7    11 1   
    18     7    21 1   
    19     7    51 1   
    20     8    14 1   
    21     8    16 1   
    22     8    32 1   
    23     9    15 1   
    24     9    33 1   
    25     9    34 1   
    26     9    52 1   
    27    10    16 1   
    28    10    23 1   
    29    10    35 1   
    30    10    36 1   
    31    11    14 1   
    32    11    37 1   
    33    11    38 1   
    34    12    17 2   
    35    12    18 1   
    36    12    39 1   
    37    13    19 2   
    38    13    24 1   
    39    13    40 1   
    40    14    23 1   
    41    14    41 1   
    42    15    42 1   
    43    15    43 1   
    44    15    44 1   
    45    16    45 1   
    46    16    46 1   
    47    17    24 1   
    48    18    25 2   
    49    18    47 1   
    50    19    20 1   
    51    21    48 1   
    52    21    49 1   
    53    21    50 1   
    54    23    52 1   
    55    24    25 1   
    56    26    52 2   
@<TRIPOS>SUBSTRUCTURE
     1 V7I         1 TEMP              0 ****  ****    0 ROOT
