@<TRIPOS>MOLECULE
V7I
   52    56     1     0     0
SMALL
abcg2


@<TRIPOS>ATOM
      1 N1          19.8320     6.3230    -3.7210 na         1 V7I       0.136800
      2 N3          19.4650     7.1620     0.7130 nc         1 V7I      -0.767000
      3 C4          18.8780     6.1020    -2.8050 cd         1 V7I      -0.150000
      4 C5          19.8220     5.9260    -5.1090 c3         1 V7I       0.072900
      5 C6          20.6090     7.1390    -1.9410 cc         1 V7I       0.285900
      6 C7          18.9930     7.1910     1.9130 cd         1 V7I       0.648300
      7 C8          20.9640     8.2510     2.7450 cy         1 V7I       0.185000
      8 C10         21.3520     9.1740     3.9170 cy         1 V7I      -0.089700
      9 C13         21.2720    13.9340     3.2280 c3         1 V7I      -0.151400
     10 C15         20.6970    11.3790     4.6170 c5         1 V7I       0.106000
     11 C17         21.0550     9.4560     1.7870 cy         1 V7I      -0.095400
     12 C20         16.8810     6.6170     3.3540 cc         1 V7I      -0.338600
     13 C1          17.4480     6.1700    -0.0900 cd         1 V7I      -0.185000
     14 C11         21.8510    10.1980     2.8820 cy         1 V7I       0.093700
     15 C14         21.0530    15.0280     2.1960 c3         1 V7I      -0.078100
     16 C16         20.2370     9.9240     4.6460 c5         1 V7I      -0.079400
     17 C18         17.6870     6.7180     2.2310 cd         1 V7I      -0.178000
     18 C19         15.7070     6.0460     2.8680 cc         1 V7I       0.353500
     19 C2          18.7050     6.6440    -0.3000 cc         1 V7I       0.455500
     20 C3          19.3390     6.6240    -1.6110 cc         1 V7I      -0.265500
     21 C9          22.0200     7.1900     2.4920 c3         1 V7I      -0.105100
     22 N2          20.8900     6.9490    -3.2150 nd         1 V7I      -0.528800
     23 N4          21.3750    11.4890     3.3290 n          1 V7I      -0.412800
     24 N5          16.9600     6.2190     1.1870 na         1 V7I       0.352400
     25 N6          15.7590     5.8090     1.5580 nd         1 V7I      -0.565100
     26 O2          22.1940    12.5250     1.5250 o          1 V7I      -0.604100
     27 H2          17.9570     5.6030    -3.0620 h4         1 V7I       0.154000
     28 H3          20.5960     5.1840    -5.2970 h1         1 V7I       0.058367
     29 H5          18.8540     5.4940    -5.3470 h1         1 V7I       0.058367
     30 H4          19.9920     6.7900    -5.7470 h1         1 V7I       0.058367
     31 H6          21.3110     7.6380    -1.2920 h4         1 V7I       0.052100
     32 H10         22.0900     8.7620     4.6060 hc         1 V7I       0.077700
     33 H13         20.3970    13.8530     3.8730 hc         1 V7I       0.054200
     34 H12         22.0970    14.2130     3.8930 hc         1 V7I       0.054200
     35 H17         21.3830    11.5950     5.4410 h1         1 V7I       0.045700
     36 H18         19.8550    12.0640     4.6930 h1         1 V7I       0.045700
     37 H22         20.0900     9.9280     1.6010 hc         1 V7I       0.078200
     38 H21         21.5540     9.2790     0.8360 hc         1 V7I       0.078200
     39 H24         17.1160     6.9040     4.3640 ha         1 V7I       0.223000
     40 H1          16.8010     5.7420    -0.8400 h4         1 V7I       0.165000
     41 H11         22.9270    10.2020     2.7070 h1         1 V7I       0.082700
     42 H16         20.8240    15.9690     2.6950 hc         1 V7I       0.042033
     43 H15         21.9340    15.1880     1.5770 hc         1 V7I       0.042033
     44 H14         20.2170    14.7910     1.5380 hc         1 V7I       0.042033
     45 H19         20.0870     9.5650     5.6630 hc         1 V7I       0.062700
     46 H20         19.2830     9.8360     4.1240 hc         1 V7I       0.062700
     47 H23         14.8130     5.7980     3.4190 h4         1 V7I       0.047800
     48 H8          23.0100     7.6470     2.5030 hc         1 V7I       0.052700
     49 H9          21.9990     6.4300     3.2750 hc         1 V7I       0.052700
     50 H7          21.8840     6.7080     1.5240 hc         1 V7I       0.052700
     51 O1          19.6760     7.6630     2.9410 os         1 V7I      -0.444300
     52 C12         21.6360    12.5990     2.6150 c          1 V7I       0.606100
@<TRIPOS>BOND
     1     1     3 1   
     2     1     4 1   
     3     1    22 1   
     4     2     6 2   
     5     2    19 1   
     6     3    20 2   
     7     3    27 1   
     8     4    28 1   
     9     4    29 1   
    10     4    30 1   
    11     5    20 1   
    12     5    22 2   
    13     5    31 1   
    14     6    17 1   
    15     6    51 1   
    16     7     8 1   
    17     7    11 1   
    18     7    21 1   
    19     7    51 1   
    20     8    14 1   
    21     8    16 1   
    22     8    32 1   
    23     9    15 1   
    24     9    33 1   
    25     9    34 1   
    26     9    52 1   
    27    10    16 1   
    28    10    23 1   
    29    10    35 1   
    30    10    36 1   
    31    11    14 1   
    32    11    37 1   
    33    11    38 1   
    34    12    17 2   
    35    12    18 1   
    36    12    39 1   
    37    13    19 2   
    38    13    24 1   
    39    13    40 1   
    40    14    23 1   
    41    14    41 1   
    42    15    42 1   
    43    15    43 1   
    44    15    44 1   
    45    16    45 1   
    46    16    46 1   
    47    17    24 1   
    48    18    25 2   
    49    18    47 1   
    50    19    20 1   
    51    21    48 1   
    52    21    49 1   
    53    21    50 1   
    54    23    52 1   
    55    24    25 1   
    56    26    52 2   
@<TRIPOS>SUBSTRUCTURE
     1 V7I         1 TEMP              0 ****  ****    0 ROOT
