@<TRIPOS>MOLECULE
V7J
   19    19     1     0     0
SMALL
No Charge or Current Charge


@<TRIPOS>ATOM
      1 C02         10.3380    -2.7310    -4.2670 c          1 V7J       0.584100
      2 C03         10.0550    -3.7980    -3.1890 c3         1 V7J       0.016000
      3 C05          8.8540    -3.0820    -1.0950 c          1 V7J       0.566000
      4 C06          7.4480    -3.3570    -0.5430 c5         1 V7J      -0.162900
      5 C07          6.5830    -3.4070    -1.8400 c5         1 V7J      -0.162900
      6 C08          7.5660    -3.9890    -2.8660 c          1 V7J       0.566000
      7 N01          9.5910    -1.6020    -4.2370 nt         1 V7J      -0.608000
      8 N04          8.8110    -3.6030    -2.3830 n          1 V7J      -0.390400
      9 O10          9.7540    -2.3880    -0.6470 o          1 V7J      -0.502000
     10 O11         11.1830    -2.8740    -5.1340 o          1 V7J      -0.594100
     11 H1          10.0100    -4.7700    -3.6960 h1         1 V7J       0.090200
     12 H2          10.9230    -3.8140    -2.5190 h1         1 V7J       0.090200
     13 H3           7.1520    -2.6210     0.2120 hc         1 V7J       0.089950
     14 H4           7.4600    -4.3570    -0.0960 hc         1 V7J       0.089950
     15 H5           6.3550    -2.3790    -2.1460 hc         1 V7J       0.089950
     16 H6           5.6560    -3.9860    -1.7850 hc         1 V7J       0.089950
     17 H7           9.7510    -0.8850    -4.9290 hn         1 V7J       0.324500
     18 H8           8.9030    -1.4710    -3.5110 hn         1 V7J       0.324500
     19 O09          7.3740    -4.7740    -3.7820 o          1 V7J      -0.502000
@<TRIPOS>BOND
     1     1     2 1   
     2     1     7 1   
     3     1    10 2   
     4     2     8 1   
     5     2    11 1   
     6     2    12 1   
     7     3     4 1   
     8     3     8 1   
     9     3     9 2   
    10     4     5 1   
    11     4    13 1   
    12     4    14 1   
    13     5     6 1   
    14     5    15 1   
    15     5    16 1   
    16     6     8 1   
    17     6    19 2   
    18     7    17 1   
    19     7    18 1   
@<TRIPOS>SUBSTRUCTURE
     1 V7J         1 TEMP              0 ****  ****    0 ROOT
