@<TRIPOS>MOLECULE
V7J
   19    19     1     0     0
SMALL
abcg2


@<TRIPOS>ATOM
      1 C02         10.1790    -2.6510    -4.3140 c          1 V7J       0.584100
      2 C03          9.9060    -3.8140    -3.3540 c3         1 V7J       0.016000
      3 C05          8.7030    -2.9340    -1.3430 c          1 V7J       0.566000
      4 C06          7.3210    -3.0370    -0.7430 c5         1 V7J      -0.162900
      5 C07          6.5140    -3.8620    -1.7480 c5         1 V7J      -0.162900
      6 C08          7.4870    -4.2030    -2.8530 c          1 V7J       0.566000
      7 N01         10.2870    -1.4430    -3.7380 nt         1 V7J      -0.608000
      8 N04          8.7200    -3.6380    -2.5340 n          1 V7J      -0.390400
      9 O10          9.6640    -2.3340    -0.9010 o          1 V7J      -0.502000
     10 O11         10.3040    -2.8470    -5.5180 o          1 V7J      -0.594100
     11 H1           9.7720    -4.7130    -3.9480 h1         1 V7J       0.090200
     12 H2          10.7640    -3.9390    -2.6920 h1         1 V7J       0.090200
     13 H3           6.9270    -2.0330    -0.5920 hc         1 V7J       0.089950
     14 H4           7.4030    -3.5100     0.2360 hc         1 V7J       0.089950
     15 H5           5.6750    -3.3150    -2.1780 hc         1 V7J       0.089950
     16 H6           6.1230    -4.7900    -1.3300 hc         1 V7J       0.089950
     17 H7          10.4790    -0.6350    -4.3110 hn         1 V7J       0.324500
     18 H8          10.2580    -1.3390    -2.7350 hn         1 V7J       0.324500
     19 O09          7.2800    -4.8510    -3.8540 o          1 V7J      -0.502000
@<TRIPOS>BOND
     1     1     2 1   
     2     1     7 1   
     3     1    10 2   
     4     2     8 1   
     5     2    11 1   
     6     2    12 1   
     7     3     4 1   
     8     3     8 1   
     9     3     9 2   
    10     4     5 1   
    11     4    13 1   
    12     4    14 1   
    13     5     6 1   
    14     5    15 1   
    15     5    16 1   
    16     6     8 1   
    17     6    19 2   
    18     7    17 1   
    19     7    18 1   
@<TRIPOS>SUBSTRUCTURE
     1 V7J         1 TEMP              0 ****  ****    0 ROOT
