@<TRIPOS>MOLECULE
V7L
   26    26     1     0     0
SMALL
abcg2


@<TRIPOS>ATOM
      1 N1          14.8860    12.3740   -43.2230 n          1 V7L      -0.399300
      2 C7          14.8110    11.7400   -47.3240 ca         1 V7L      -0.180000
      3 C8          15.2060    12.9280   -46.7310 ca         1 V7L       0.353900
      4 N2          15.2390    13.1110   -45.4060 nb         1 V7L      -0.704000
      5 C1          15.4300    11.8260   -40.8650 c3         1 V7L       0.079800
      6 C5          14.4350    10.8750   -45.1200 ca         1 V7L      -0.146000
      7 C6          14.4130    10.6970   -46.4920 ca         1 V7L      -0.063000
      8 C4          14.8690    12.1040   -44.6190 ca         1 V7L       0.463900
      9 C3          14.5070    13.7340   -42.8230 c3         1 V7L       0.112300
     10 C2          15.3910    11.4540   -42.3410 c          1 V7L       0.606100
     11 O           15.8270    10.3640   -42.7020 o          1 V7L      -0.594100
     12 N           16.4730    12.8130   -40.6030 n7         1 V7L      -0.858400
     13 C           16.4920    13.2320   -39.2040 c3         1 V7L       0.142100
     14 H1          14.8050    11.6380   -48.4000 ha         1 V7L       0.125000
     15 H2          15.5110    13.7740   -47.3370 h4         1 V7L       0.019100
     16 H3          14.4710    12.2380   -40.5440 h1         1 V7L       0.056700
     17 H4          15.5810    10.8860   -40.3200 h1         1 V7L       0.056700
     18 H5          14.1200    10.0920   -44.4490 ha         1 V7L       0.142000
     19 H6          14.0770     9.7560   -46.9100 ha         1 V7L       0.121000
     20 H7          14.1250    13.7300   -41.8090 h1         1 V7L       0.047367
     21 H8          15.3520    14.4180   -42.8800 h1         1 V7L       0.047367
     22 H9          13.7230    14.0820   -43.4910 h1         1 V7L       0.047367
     23 H10         17.3710    12.4070   -40.8420 hn         1 V7L       0.420000
     24 H12         17.3360    13.9030   -39.0400 h1         1 V7L       0.034700
     25 H13         15.5720    13.7760   -38.9770 h1         1 V7L       0.034700
     26 H14         16.5720    12.3920   -38.4990 h1         1 V7L       0.034700
@<TRIPOS>BOND
     1     1     8 1   
     2     1     9 1   
     3     1    10 1   
     4     2     3 ar  
     5     2     7 ar  
     6     2    14 1   
     7     3     4 ar  
     8     3    15 1   
     9     4     8 ar  
    10     5    10 1   
    11     5    12 1   
    12     5    16 1   
    13     5    17 1   
    14     6     7 ar  
    15     6     8 ar  
    16     6    18 1   
    17     7    19 1   
    18     9    20 1   
    19     9    21 1   
    20     9    22 1   
    21    10    11 2   
    22    12    13 1   
    23    12    23 1   
    24    13    24 1   
    25    13    25 1   
    26    13    26 1   
@<TRIPOS>SUBSTRUCTURE
     1 V7L         1 TEMP              0 ****  ****    0 ROOT
