@<TRIPOS>MOLECULE
V7L
   26    26     1     0     0
SMALL
No Charge or Current Charge


@<TRIPOS>ATOM
      1 N1          14.9570    12.5160   -43.3440 n          1 V7L      -0.399300
      2 C7          14.5360    11.5930   -47.4260 ca         1 V7L      -0.180000
      3 C8          14.7610    12.8900   -46.9430 ca         1 V7L       0.353900
      4 N2          14.8820    13.1740   -45.6260 nb         1 V7L      -0.704000
      5 C1          15.4450    11.8920   -40.8990 c3         1 V7L       0.079800
      6 C5          14.5560    10.8290   -45.1460 ca         1 V7L      -0.146000
      7 C6          14.4300    10.5350   -46.5130 ca         1 V7L      -0.063000
      8 C4          14.7710    12.1630   -44.7300 ca         1 V7L       0.463900
      9 C3          14.8800    13.9560   -42.9640 c3         1 V7L       0.112300
     10 C2          15.6140    11.6500   -42.4370 c          1 V7L       0.606100
     11 O           16.2750    10.6960   -42.8330 o          1 V7L      -0.594100
     12 N           16.4730    12.8010   -40.2870 n7         1 V7L      -0.858400
     13 C           16.3110    13.0480   -38.8400 c3         1 V7L       0.142100
     14 H1          14.4460    11.4170   -48.4950 ha         1 V7L       0.125000
     15 H2          14.8510    13.7300   -47.6300 h4         1 V7L       0.019100
     16 H3          14.4320    12.2800   -40.7320 h1         1 V7L       0.056700
     17 H4          15.4820    10.9040   -40.4200 h1         1 V7L       0.056700
     18 H5          14.4590    10.0300   -44.4180 ha         1 V7L       0.142000
     19 H6          14.2530     9.5160   -46.8520 ha         1 V7L       0.121000
     20 H7          14.5620    14.0820   -41.9230 h1         1 V7L       0.047367
     21 H8          15.8620    14.4270   -43.0970 h1         1 V7L       0.047367
     22 H9          14.1430    14.4820   -43.5850 h1         1 V7L       0.047367
     23 H10         17.4060    12.3890   -40.4400 hn         1 V7L       0.420000
     24 H12         17.0890    13.7310   -38.4740 h1         1 V7L       0.034700
     25 H13         15.3340    13.5020   -38.6280 h1         1 V7L       0.034700
     26 H14         16.3850    12.1110   -38.2710 h1         1 V7L       0.034700
@<TRIPOS>BOND
     1     1     8 1   
     2     1     9 1   
     3     1    10 1   
     4     2     3 ar  
     5     2     7 ar  
     6     2    14 1   
     7     3     4 ar  
     8     3    15 1   
     9     4     8 ar  
    10     5    10 1   
    11     5    12 1   
    12     5    16 1   
    13     5    17 1   
    14     6     7 ar  
    15     6     8 ar  
    16     6    18 1   
    17     7    19 1   
    18     9    20 1   
    19     9    21 1   
    20     9    22 1   
    21    10    11 2   
    22    12    13 1   
    23    12    23 1   
    24    13    24 1   
    25    13    25 1   
    26    13    26 1   
@<TRIPOS>SUBSTRUCTURE
     1 V7L         1 TEMP              0 ****  ****    0 ROOT
