@<TRIPOS>MOLECULE
V7M
   18    18     1     0     0
SMALL
abcg2


@<TRIPOS>ATOM
      1 C1          14.8470    -5.7400    82.3550 c3         1 V7M      -0.049800
      2 C2          14.4310    -4.3080    82.5190 ca         1 V7M      -0.045300
      3 C3          13.5730    -3.7090    81.6000 ca         1 V7M      -0.131000
      4 C4          13.1930    -2.3740    81.7130 ca         1 V7M      -0.045300
      5 C5          12.2400    -1.7620    80.7300 c3         1 V7M      -0.049800
      6 C6          13.6900    -1.6200    82.7750 ca         1 V7M      -0.158000
      7 C7          14.5370    -2.2260    83.6800 ca         1 V7M       0.176000
      8 C8          14.9190    -3.5490    83.5790 ca         1 V7M      -0.158000
      9 F9          15.0140    -1.4960    84.7050 f          1 V7M      -0.183000
     10 H1          15.6890    -5.8220    81.6640 hc         1 V7M       0.045033
     11 H2          15.1610    -6.1790    83.3020 hc         1 V7M       0.045033
     12 H3          14.0370    -6.3470    81.9510 hc         1 V7M       0.045033
     13 H4          13.1870    -4.2990    80.7760 ha         1 V7M       0.114000
     14 H5          11.2070    -1.8810    81.0650 hc         1 V7M       0.045033
     15 H6          12.4200    -0.6940    80.6060 hc         1 V7M       0.045033
     16 H7          12.3190    -2.2350    79.7510 hc         1 V7M       0.045033
     17 H8          13.4170    -0.5790    82.8960 ha         1 V7M       0.130000
     18 H9          15.5850    -3.9830    84.3150 ha         1 V7M       0.130000
@<TRIPOS>BOND
     1     1     2 1   
     2     1    10 1   
     3     1    11 1   
     4     1    12 1   
     5     2     3 ar  
     6     2     8 ar  
     7     3     4 ar  
     8     3    13 1   
     9     4     5 1   
    10     4     6 ar  
    11     5    14 1   
    12     5    15 1   
    13     5    16 1   
    14     6     7 ar  
    15     6    17 1   
    16     7     8 ar  
    17     7     9 1   
    18     8    18 1   
@<TRIPOS>SUBSTRUCTURE
     1 V7M         1 TEMP              0 ****  ****    0 ROOT
