@<TRIPOS>MOLECULE
V7M
   18    18     1     0     0
SMALL
No Charge or Current Charge


@<TRIPOS>ATOM
      1 C1          14.8530    -5.7690    82.3590 c3         1 V7M      -0.049800
      2 C2          14.4420    -4.3130    82.5120 ca         1 V7M      -0.045300
      3 C3          13.5580    -3.7230    81.5870 ca         1 V7M      -0.131000
      4 C4          13.1750    -2.3740    81.7180 ca         1 V7M      -0.045300
      5 C5          12.2170    -1.7480    80.7170 c3         1 V7M      -0.049800
      6 C6          13.6820    -1.6130    82.7880 ca         1 V7M      -0.158000
      7 C7          14.5650    -2.1970    83.7090 ca         1 V7M       0.176000
      8 C8          14.9470    -3.5400    83.5750 ca         1 V7M      -0.158000
      9 F9          15.0500    -1.4610    84.7320 f          1 V7M      -0.183000
     10 H1          15.7340    -5.8600    81.7120 hc         1 V7M       0.045033
     11 H2          15.1000    -6.2200    83.3270 hc         1 V7M       0.045033
     12 H3          14.0480    -6.3660    81.9140 hc         1 V7M       0.045033
     13 H4          13.1680    -4.3160    80.7630 ha         1 V7M       0.114000
     14 H5          11.1760    -1.9000    81.0250 hc         1 V7M       0.045033
     15 H6          12.3850    -0.6680    80.6220 hc         1 V7M       0.045033
     16 H7          12.3390    -2.1870    79.7190 hc         1 V7M       0.045033
     17 H8          13.3950    -0.5710    82.9070 ha         1 V7M       0.130000
     18 H9          15.6320    -3.9770    84.2960 ha         1 V7M       0.130000
@<TRIPOS>BOND
     1     1     2 1   
     2     1    10 1   
     3     1    11 1   
     4     1    12 1   
     5     2     3 ar  
     6     2     8 ar  
     7     3     4 ar  
     8     3    13 1   
     9     4     5 1   
    10     4     6 ar  
    11     5    14 1   
    12     5    15 1   
    13     5    16 1   
    14     6     7 ar  
    15     6    17 1   
    16     7     8 ar  
    17     7     9 1   
    18     8    18 1   
@<TRIPOS>SUBSTRUCTURE
     1 V7M         1 TEMP              0 ****  ****    0 ROOT
