@<TRIPOS>MOLECULE
V7N
   98    97     1     0     0
SMALL
No Charge or Current Charge


@<TRIPOS>ATOM
      1 C1         179.3370   260.7170   209.4950 c3         1 V7N       0.193000
      2 C10        176.1610   262.6470   199.6810 ce         1 V7N      -0.064000
      3 C11        175.9330   262.7530   198.2290 ce         1 V7N      -0.219000
      4 C12        174.7850   262.3490   197.6110 cf         1 V7N      -0.122000
      5 C13        174.4710   262.4290   196.1800 cf         1 V7N      -0.095200
      6 C14        173.1870   262.2350   195.7530 ce         1 V7N      -0.141000
      7 C15        172.6910   262.2780   194.3680 ce         1 V7N      -0.203000
      8 C16        171.4070   262.0140   194.0080 cf         1 V7N      -0.138000
      9 C17        170.9170   262.0580   192.6320 cf         1 V7N      -0.209000
     10 C18        169.6360   261.8630   192.1990 ce         1 V7N      -0.030200
     11 C19        169.3280   261.9460   190.7570 ce         1 V7N      -0.211000
     12 C2         179.1040   262.1620   208.9510 c3         1 V7N      -0.069200
     13 C20        168.1770   261.5610   190.1350 cf         1 V7N      -0.136000
     14 C21        167.9580   261.6680   188.6950 cf         1 V7N      -0.220000
     15 C22        166.8250   261.3210   188.0350 c2         1 V7N      -0.068400
     16 C23        166.7020   261.4310   186.5220 c3         1 V7N      -0.050200
     17 C24        166.8300   260.0670   185.8100 c3         1 V7N      -0.022200
     18 C25        166.7030   260.1860   184.3010 c2         1 V7N      -0.276200
     19 C26        165.5700   260.2340   183.5610 ce         1 V7N      -0.028200
     20 C27        165.6690   260.3640   182.0950 ce         1 V7N      -0.267000
     21 C28        164.6420   260.3400   181.1960 cf         1 V7N      -0.096000
     22 C29        164.7520   260.4430   179.7400 cf         1 V7N      -0.269000
     23 C3         179.5060   262.3440   207.4970 c2         1 V7N      -0.204200
     24 C30        178.3840   259.6780   208.8460 c3         1 V7N      -0.099600
     25 C31        180.8100   260.2790   209.3140 c3         1 V7N      -0.099600
     26 C33        180.5420   262.2790   204.6650 c3         1 V7N      -0.054900
     27 C34        178.5420   263.5640   199.8500 c          1 V7N       0.584100
     28 C35        175.6310   262.6600   195.2140 c3         1 V7N      -0.052900
     29 C36        168.4670   261.6240   193.1510 c3         1 V7N      -0.059900
     30 C37        165.5790   260.7540   188.7040 c3         1 V7N      -0.060900
     31 C38        164.1720   260.1940   184.1700 c3         1 V7N      -0.055900
     32 C39        165.6460   261.1650   178.9790 ce         1 V7N      -0.117400
     33 C4         178.6870   262.1720   206.4340 ce         1 V7N      -0.185000
     34 C40        165.5970   261.1340   177.4520 c          1 V7N       0.700200
     35 C41        177.8310   261.0580   211.4580 c3         1 V7N       0.151900
     36 C43        166.6800   262.1050   179.6070 c3         1 V7N      -0.050900
     37 C5         179.0540   262.3480   205.0140 ce         1 V7N      -0.065200
     38 C6         178.0640   262.4960   204.0800 cf         1 V7N      -0.175000
     39 C7         178.2750   262.6630   202.7390 ce         1 V7N      -0.183000
     40 C8         177.2190   262.7960   201.8830 cf         1 V7N      -0.155000
     41 C9         177.2670   262.9840   200.4240 cf         1 V7N      -0.209200
     42 O32        179.1330   260.7090   210.9330 os         1 V7N      -0.465000
     43 O42        178.7790   263.7230   198.6580 o          1 V7N      -0.533100
     44 O44        164.7480   260.4430   176.9040 o          1 V7N      -0.720500
     45 O45        166.4150   261.7800   176.8120 o          1 V7N      -0.720500
     46 H1         175.3130   262.2370   200.2320 ha         1 V7N       0.161000
     47 H2         176.7170   263.1970   197.6210 ha         1 V7N       0.212000
     48 H3         173.9980   261.9360   198.2470 ha         1 V7N       0.165000
     49 H4         172.4270   262.0420   196.5130 ha         1 V7N       0.164000
     50 H5         173.3970   262.5510   193.5830 ha         1 V7N       0.178000
     51 H6         170.7030   261.7420   194.7960 ha         1 V7N       0.168000
     52 H7         171.6760   262.2550   191.8720 ha         1 V7N       0.174000
     53 H9         170.1240   262.3460   190.1280 ha         1 V7N       0.174000
     54 H10        179.6670   262.8690   209.5730 hc         1 V7N       0.052700
     55 H11        178.0480   262.4340   209.0610 hc         1 V7N       0.052700
     56 H12        167.3740   261.1280   190.7310 ha         1 V7N       0.168000
     57 H13        168.7960   262.0550   188.1120 ha         1 V7N       0.174000
     58 H14        167.4790   262.0980   186.1280 hc         1 V7N       0.052700
     59 H15        165.7480   261.8990   186.2500 hc         1 V7N       0.052700
     60 H16        166.0820   259.3680   186.2040 hc         1 V7N       0.036200
     61 H17        167.8060   259.6330   186.0620 hc         1 V7N       0.036200
     62 H18        167.6720   260.2320   183.8010 ha         1 V7N       0.170000
     63 H19        166.6810   260.4600   181.7050 ha         1 V7N       0.178000
     64 H20        163.6300   260.1700   181.5680 ha         1 V7N       0.143000
     65 H21        163.9930   259.8700   179.2010 ha         1 V7N       0.197000
     66 H22        180.5450   262.6530   207.3690 ha         1 V7N       0.170000
     67 H23        178.4310   258.7200   209.3770 hc         1 V7N       0.042867
     68 H24        177.3450   260.0270   208.8500 hc         1 V7N       0.042867
     69 H25        178.6650   259.4980   207.8020 hc         1 V7N       0.042867
     70 H26        181.4920   261.0090   209.7660 hc         1 V7N       0.042867
     71 H27        180.9870   259.3060   209.7870 hc         1 V7N       0.042867
     72 H28        181.0660   260.1850   208.2520 hc         1 V7N       0.042867
     73 H29        180.9740   263.2830   204.5770 hc         1 V7N       0.041700
     74 H30        181.1210   261.7290   205.4150 hc         1 V7N       0.041700
     75 H31        180.7210   261.7510   203.7220 hc         1 V7N       0.041700
     76 H32        179.3080   263.8730   200.5920 h4         1 V7N      -0.016800
     77 H33        176.5700   262.2420   195.5920 hc         1 V7N       0.045367
     78 H34        175.4670   262.1770   194.2450 hc         1 V7N       0.045367
     79 H35        175.7870   263.7300   195.0340 hc         1 V7N       0.045367
     80 H36        168.6290   262.0820   194.1330 hc         1 V7N       0.042700
     81 H37        167.5360   262.0630   192.7760 hc         1 V7N       0.042700
     82 H38        168.2960   260.5520   193.3060 hc         1 V7N       0.042700
     83 H39        165.3550   261.2720   189.6430 hc         1 V7N       0.041033
     84 H40        164.6890   260.8510   188.0710 hc         1 V7N       0.041033
     85 H41        165.7090   259.6890   188.9290 hc         1 V7N       0.041033
     86 H42        164.1760   260.2780   185.2620 hc         1 V7N       0.034700
     87 H43        163.5540   261.0200   183.7980 hc         1 V7N       0.034700
     88 H44        163.6620   259.2560   183.9210 hc         1 V7N       0.034700
     89 H45        177.6470   261.8980   206.6180 ha         1 V7N       0.168000
     90 H46        177.8360   260.9790   212.5520 h1         1 V7N       0.026033
     91 H47        177.5580   262.0910   211.2060 h1         1 V7N       0.026033
     92 H48        177.0500   260.3850   211.0830 h1         1 V7N       0.026033
     93 H49        166.3320   262.5130   180.5620 hc         1 V7N       0.029033
     94 H50        167.6300   261.5870   179.7830 hc         1 V7N       0.029033
     95 H51        166.8920   262.9760   178.9760 hc         1 V7N       0.029033
     96 H52        177.0320   262.4910   204.4400 ha         1 V7N       0.168000
     97 H53        179.2910   262.6850   202.3490 ha         1 V7N       0.173000
     98 H54        176.2160   262.7340   202.3130 ha         1 V7N       0.165000
@<TRIPOS>BOND
     1     1    12 1   
     2     1    24 1   
     3     1    25 1   
     4     1    42 1   
     5     2     3 1   
     6     2    41 2   
     7     2    46 1   
     8     3     4 2   
     9     3    47 1   
    10     4     5 1   
    11     4    48 1   
    12     5     6 2   
    13     5    28 1   
    14     6     7 1   
    15     6    49 1   
    16     7     8 2   
    17     7    50 1   
    18     8     9 1   
    19     8    51 1   
    20     9    10 2   
    21     9    52 1   
    22    10    11 1   
    23    10    29 1   
    24    11    13 2   
    25    11    53 1   
    26    12    23 1   
    27    12    54 1   
    28    12    55 1   
    29    13    14 1   
    30    13    56 1   
    31    14    15 2   
    32    14    57 1   
    33    15    16 1   
    34    15    30 1   
    35    16    17 1   
    36    16    58 1   
    37    16    59 1   
    38    17    18 1   
    39    17    60 1   
    40    17    61 1   
    41    18    19 2   
    42    18    62 1   
    43    19    20 1   
    44    19    31 1   
    45    20    21 2   
    46    20    63 1   
    47    21    22 1   
    48    21    64 1   
    49    22    32 2   
    50    22    65 1   
    51    23    33 2   
    52    23    66 1   
    53    24    67 1   
    54    24    68 1   
    55    24    69 1   
    56    25    70 1   
    57    25    71 1   
    58    25    72 1   
    59    26    37 1   
    60    26    73 1   
    61    26    74 1   
    62    26    75 1   
    63    27    41 1   
    64    27    43 2   
    65    27    76 1   
    66    28    77 1   
    67    28    78 1   
    68    28    79 1   
    69    29    80 1   
    70    29    81 1   
    71    29    82 1   
    72    30    83 1   
    73    30    84 1   
    74    30    85 1   
    75    31    86 1   
    76    31    87 1   
    77    31    88 1   
    78    32    34 1   
    79    32    36 1   
    80    33    37 1   
    81    33    89 1   
    82    34    44 1   
    83    34    45 1   
    84    35    42 1   
    85    35    90 1   
    86    35    91 1   
    87    35    92 1   
    88    36    93 1   
    89    36    94 1   
    90    36    95 1   
    91    37    38 2   
    92    38    39 1   
    93    38    96 1   
    94    39    40 2   
    95    39    97 1   
    96    40    41 1   
    97    40    98 1   
@<TRIPOS>SUBSTRUCTURE
     1 V7N         1 TEMP              0 ****  ****    0 ROOT
