@<TRIPOS>MOLECULE
V7N
   98    97     1     0     0
SMALL
abcg2


@<TRIPOS>ATOM
      1 C1         179.2030   260.7150   209.2300 c3         1 V7N       0.193000
      2 C10        176.3020   262.6130   199.2850 ce         1 V7N      -0.064000
      3 C11        176.1060   262.6940   197.8780 ce         1 V7N      -0.219000
      4 C12        174.8810   262.4390   197.3430 cf         1 V7N      -0.122000
      5 C13        174.5500   262.4870   195.9470 cf         1 V7N      -0.095200
      6 C14        173.2560   262.2310   195.6030 ce         1 V7N      -0.141000
      7 C15        172.6900   262.2340   194.2920 ce         1 V7N      -0.203000
      8 C16        171.3750   261.9860   194.0650 cf         1 V7N      -0.138000
      9 C17        170.8060   261.9900   192.7530 cf         1 V7N      -0.209000
     10 C18        169.5100   261.7630   192.4110 ce         1 V7N      -0.030200
     11 C19        169.1700   261.8090   191.0070 ce         1 V7N      -0.211000
     12 C2         178.6570   262.0380   208.6440 c3         1 V7N      -0.069200
     13 C20        167.9460   261.6080   190.4760 cf         1 V7N      -0.136000
     14 C21        167.7120   261.6540   189.0530 cf         1 V7N      -0.220000
     15 C22        166.5460   261.4600   188.4090 c2         1 V7N      -0.068400
     16 C23        166.5110   261.5030   186.9090 c3         1 V7N      -0.050200
     17 C24        166.2080   260.1300   186.2780 c3         1 V7N      -0.022200
     18 C25        166.3650   260.1670   184.7930 c2         1 V7N      -0.276200
     19 C26        165.4070   260.3610   183.8700 ce         1 V7N      -0.028200
     20 C27        165.8030   260.3790   182.4670 ce         1 V7N      -0.267000
     21 C28        164.9780   260.5390   181.4170 cf         1 V7N      -0.096000
     22 C29        165.3500   260.5210   180.0110 cf         1 V7N      -0.269000
     23 C3         179.1850   262.3650   207.2850 c2         1 V7N      -0.204200
     24 C30        178.8230   259.5320   208.3430 c3         1 V7N      -0.099600
     25 C31        180.7180   260.7790   209.3840 c3         1 V7N      -0.099600
     26 C33        180.3810   262.9580   204.6550 c3         1 V7N      -0.054900
     27 C34        178.7070   263.2600   199.4470 c          1 V7N       0.584100
     28 C35        175.6290   262.8230   194.9620 c3         1 V7N      -0.052900
     29 C36        168.4240   261.4620   193.3990 c3         1 V7N      -0.059900
     30 C37        165.2410   261.1710   189.0830 c3         1 V7N      -0.060900
     31 C38        163.9580   260.5630   184.2040 c3         1 V7N      -0.055900
     32 C39        166.4780   260.9500   179.4180 ce         1 V7N      -0.117400
     33 C4         178.4460   262.3500   206.1690 ce         1 V7N      -0.185000
     34 C40        166.6450   260.7410   177.9100 c          1 V7N       0.700200
     35 C41        177.3660   260.2230   210.7320 c3         1 V7N       0.151900
     36 C43        167.5990   261.6300   180.1430 c3         1 V7N      -0.050900
     37 C5         178.9290   262.6280   204.8240 ce         1 V7N      -0.065200
     38 C6         178.0450   262.5590   203.8010 cf         1 V7N      -0.175000
     39 C7         178.3080   262.7740   202.4030 ce         1 V7N      -0.183000
     40 C8         177.3340   262.6680   201.4710 cf         1 V7N      -0.155000
     41 C9         177.4290   262.8400   200.0330 cf         1 V7N      -0.209200
     42 O32        178.7190   260.5600   210.5620 os         1 V7N      -0.465000
     43 O42        178.9400   263.4010   198.2640 o          1 V7N      -0.533100
     44 O44        165.7010   260.2090   177.2900 o          1 V7N      -0.720500
     45 O45        167.7330   261.1120   177.4240 o          1 V7N      -0.720500
     46 H1         175.4170   262.3280   199.8500 ha         1 V7N       0.161000
     47 H2         176.9340   262.9590   197.2380 ha         1 V7N       0.212000
     48 H3         174.0710   262.1790   198.0200 ha         1 V7N       0.165000
     49 H4         172.5650   262.0020   196.4120 ha         1 V7N       0.164000
     50 H5         173.3270   262.4450   193.4410 ha         1 V7N       0.178000
     51 H6         170.7370   261.7770   194.9180 ha         1 V7N       0.168000
     52 H7         171.5010   262.2000   191.9430 ha         1 V7N       0.174000
     53 H9         169.9920   262.0200   190.3270 ha         1 V7N       0.174000
     54 H10        178.9220   262.8420   209.3410 hc         1 V7N       0.052700
     55 H11        177.5650   261.9950   208.6020 hc         1 V7N       0.052700
     56 H12        167.1080   261.3950   191.1310 ha         1 V7N       0.168000
     57 H13        168.5900   261.8590   188.4450 ha         1 V7N       0.174000
     58 H14        167.4680   261.8680   186.5260 hc         1 V7N       0.052700
     59 H15        165.7460   262.2110   186.5740 hc         1 V7N       0.052700
     60 H16        165.2070   259.8040   186.5640 hc         1 V7N       0.036200
     61 H17        166.9050   259.3960   186.6910 hc         1 V7N       0.036200
     62 H18        167.3860   260.0600   184.4350 ha         1 V7N       0.170000
     63 H19        166.8600   260.2130   182.2840 ha         1 V7N       0.178000
     64 H20        163.9120   260.6340   181.6040 ha         1 V7N       0.143000
     65 H21        164.5890   260.1170   179.3510 ha         1 V7N       0.197000
     66 H22        180.2380   262.6210   207.2240 ha         1 V7N       0.170000
     67 H23        179.1040   258.5880   208.8140 hc         1 V7N       0.042867
     68 H24        177.7550   259.5000   208.1210 hc         1 V7N       0.042867
     69 H25        179.3450   259.5950   207.3890 hc         1 V7N       0.042867
     70 H26        181.0160   261.6200   210.0130 hc         1 V7N       0.042867
     71 H27        181.0950   259.8620   209.8400 hc         1 V7N       0.042867
     72 H28        181.2090   260.8930   208.4180 hc         1 V7N       0.042867
     73 H29        180.6490   263.8510   205.2230 hc         1 V7N       0.041700
     74 H30        181.0090   262.1470   205.0310 hc         1 V7N       0.041700
     75 H31        180.6600   263.1350   203.6190 hc         1 V7N       0.041700
     76 H32        179.5060   263.4690   200.1750 h4         1 V7N      -0.016800
     77 H33        176.4590   262.1170   195.0360 hc         1 V7N       0.045367
     78 H34        175.2810   262.8110   193.9320 hc         1 V7N       0.045367
     79 H35        176.0400   263.8150   195.1570 hc         1 V7N       0.045367
     80 H36        168.7730   261.4590   194.4290 hc         1 V7N       0.042700
     81 H37        167.6180   262.1950   193.3260 hc         1 V7N       0.042700
     82 H38        167.9790   260.4850   193.1990 hc         1 V7N       0.042700
     83 H39        165.2760   261.2780   190.1640 hc         1 V7N       0.041033
     84 H40        164.4650   261.8400   188.7050 hc         1 V7N       0.041033
     85 H41        164.9030   260.1540   188.8660 hc         1 V7N       0.041033
     86 H42        163.7700   260.5440   185.2750 hc         1 V7N       0.034700
     87 H43        163.6020   261.5240   183.8260 hc         1 V7N       0.034700
     88 H44        163.3350   259.7940   183.7430 hc         1 V7N       0.034700
     89 H45        177.3910   262.0980   206.2530 ha         1 V7N       0.168000
     90 H46        177.1630   260.2500   211.8030 h1         1 V7N       0.026033
     91 H47        176.6770   260.9230   210.2480 h1         1 V7N       0.026033
     92 H48        177.1290   259.2170   210.3730 h1         1 V7N       0.026033
     93 H49        167.2720   262.0750   181.0820 hc         1 V7N       0.029033
     94 H50        168.4070   260.9330   180.3860 hc         1 V7N       0.029033
     95 H51        168.0400   262.4100   179.5250 hc         1 V7N       0.029033
     96 H52        177.0160   262.3090   204.0490 ha         1 V7N       0.168000
     97 H53        179.3220   263.0170   202.1130 ha         1 V7N       0.173000
     98 H54        176.3410   262.4090   201.8290 ha         1 V7N       0.165000
@<TRIPOS>BOND
     1     1    12 1   
     2     1    24 1   
     3     1    25 1   
     4     1    42 1   
     5     2     3 1   
     6     2    41 2   
     7     2    46 1   
     8     3     4 2   
     9     3    47 1   
    10     4     5 1   
    11     4    48 1   
    12     5     6 2   
    13     5    28 1   
    14     6     7 1   
    15     6    49 1   
    16     7     8 2   
    17     7    50 1   
    18     8     9 1   
    19     8    51 1   
    20     9    10 2   
    21     9    52 1   
    22    10    11 1   
    23    10    29 1   
    24    11    13 2   
    25    11    53 1   
    26    12    23 1   
    27    12    54 1   
    28    12    55 1   
    29    13    14 1   
    30    13    56 1   
    31    14    15 2   
    32    14    57 1   
    33    15    16 1   
    34    15    30 1   
    35    16    17 1   
    36    16    58 1   
    37    16    59 1   
    38    17    18 1   
    39    17    60 1   
    40    17    61 1   
    41    18    19 2   
    42    18    62 1   
    43    19    20 1   
    44    19    31 1   
    45    20    21 2   
    46    20    63 1   
    47    21    22 1   
    48    21    64 1   
    49    22    32 2   
    50    22    65 1   
    51    23    33 2   
    52    23    66 1   
    53    24    67 1   
    54    24    68 1   
    55    24    69 1   
    56    25    70 1   
    57    25    71 1   
    58    25    72 1   
    59    26    37 1   
    60    26    73 1   
    61    26    74 1   
    62    26    75 1   
    63    27    41 1   
    64    27    43 2   
    65    27    76 1   
    66    28    77 1   
    67    28    78 1   
    68    28    79 1   
    69    29    80 1   
    70    29    81 1   
    71    29    82 1   
    72    30    83 1   
    73    30    84 1   
    74    30    85 1   
    75    31    86 1   
    76    31    87 1   
    77    31    88 1   
    78    32    34 1   
    79    32    36 1   
    80    33    37 1   
    81    33    89 1   
    82    34    44 1   
    83    34    45 1   
    84    35    42 1   
    85    35    90 1   
    86    35    91 1   
    87    35    92 1   
    88    36    93 1   
    89    36    94 1   
    90    36    95 1   
    91    37    38 2   
    92    38    39 1   
    93    38    96 1   
    94    39    40 2   
    95    39    97 1   
    96    40    41 1   
    97    40    98 1   
@<TRIPOS>SUBSTRUCTURE
     1 V7N         1 TEMP              0 ****  ****    0 ROOT
