@<TRIPOS>MOLECULE
V7P
   27    28     1     0     0
SMALL
abcg2


@<TRIPOS>ATOM
      1 C2          14.1450    -5.9200   -30.5900 ca         1 V7P       0.171000
      2 C3          15.2250    -5.4320   -31.3410 ca         1 V7P      -0.139000
      3 C4          14.9760    -4.8990   -32.5730 ca         1 V7P      -0.056000
      4 C5          13.6590    -4.8360   -33.0880 ca         1 V7P       0.252000
      5 C7          12.2780    -4.2420   -34.7960 ca         1 V7P       0.351900
      6 C8          11.1450    -4.7110   -34.1070 ca         1 V7P      -0.169000
      7 C9          11.2730    -5.2560   -32.8560 ca         1 V7P      -0.012300
      8 C10         12.5820    -5.3320   -32.3070 ca         1 V7P      -0.035000
      9 C11         12.8590    -5.8810   -31.0330 ca         1 V7P      -0.132000
     10 C            7.9710    -5.0590   -30.9670 c          1 V7P       0.530900
     11 N           10.1380    -3.9350   -30.4320 n8         1 V7P      -0.983200
     12 O            7.5840    -5.0060   -29.8280 o          1 V7P      -0.510100
     13 F1          14.4110    -6.4440   -29.3840 f          1 V7P      -0.178000
     14 N6          13.4910    -4.2960   -34.3170 nb         1 V7P      -0.653000
     15 CA           9.3180    -4.5580   -31.4380 c3         1 V7P       0.049500
     16 CB          10.0480    -5.7240   -32.1280 c3         1 V7P      -0.025100
     17 H1          16.2300    -5.4860   -30.9450 ha         1 V7P       0.135000
     18 H2          15.7840    -4.5160   -33.1820 ha         1 V7P       0.136000
     19 H3          12.1570    -3.8090   -35.7830 h4         1 V7P       0.020100
     20 H4          10.1730    -4.6340   -34.5780 ha         1 V7P       0.118000
     21 H5          12.0700    -6.2780   -30.4100 ha         1 V7P       0.130000
     22 H7           9.6750    -3.1100   -30.0720 hn         1 V7P       0.409000
     23 H8          10.2570    -4.5560   -29.6410 hn         1 V7P       0.409000
     24 H10          9.0940    -3.8150   -32.2150 h1         1 V7P       0.080700
     25 H11          9.3700    -6.1890   -32.8480 hc         1 V7P       0.055700
     26 H12         10.2770    -6.4940   -31.3900 hc         1 V7P       0.055700
     27 H6           7.3380    -5.4900   -31.7650 h4         1 V7P      -0.010800
@<TRIPOS>BOND
     1     1     2 ar  
     2     1     9 ar  
     3     1    13 1   
     4     2     3 ar  
     5     2    17 1   
     6     3     4 ar  
     7     3    18 1   
     8     4     8 ar  
     9     4    14 ar  
    10     5     6 ar  
    11     5    14 ar  
    12     5    19 1   
    13     6     7 ar  
    14     6    20 1   
    15     7     8 ar  
    16     7    16 1   
    17     8     9 ar  
    18     9    21 1   
    19    10    12 2   
    20    10    15 1   
    21    10    27 1   
    22    11    15 1   
    23    11    22 1   
    24    11    23 1   
    25    15    16 1   
    26    15    24 1   
    27    16    25 1   
    28    16    26 1   
@<TRIPOS>SUBSTRUCTURE
     1 V7P         1 TEMP              0 ****  ****    0 ROOT
