@<TRIPOS>MOLECULE
V7P
   27    28     1     0     0
SMALL
No Charge or Current Charge


@<TRIPOS>ATOM
      1 C2          14.2000    -5.9030   -30.5530 ca         1 V7P       0.171000
      2 C3          15.2710    -5.4560   -31.3340 ca         1 V7P      -0.139000
      3 C4          15.0260    -4.9330   -32.6140 ca         1 V7P      -0.056000
      4 C5          13.7170    -4.8510   -33.1300 ca         1 V7P       0.252000
      5 C7          12.2880    -4.2530   -34.8630 ca         1 V7P       0.351900
      6 C8          11.1620    -4.6860   -34.1540 ca         1 V7P      -0.169000
      7 C9          11.3110    -5.2310   -32.8650 ca         1 V7P      -0.012300
      8 C10         12.6270    -5.3140   -32.3330 ca         1 V7P      -0.035000
      9 C11         12.8880    -5.8350   -31.0410 ca         1 V7P      -0.132000
     10 C            7.8660    -5.0860   -30.9500 c          1 V7P       0.530900
     11 N           10.1100    -3.9150   -30.3550 n8         1 V7P      -0.983200
     12 O            7.4990    -5.1020   -29.7770 o          1 V7P      -0.510100
     13 F1          14.4320    -6.4010   -29.3190 f          1 V7P      -0.178000
     14 N6          13.5400    -4.3340   -34.3680 nb         1 V7P      -0.653000
     15 CA           9.2690    -4.5730   -31.4190 c3         1 V7P       0.049500
     16 CB          10.0460    -5.7100   -32.1380 c3         1 V7P      -0.025100
     17 H1          16.2860    -5.5120   -30.9480 ha         1 V7P       0.135000
     18 H2          15.8600    -4.5830   -33.2170 ha         1 V7P       0.136000
     19 H3          12.1870    -3.8310   -35.8630 h4         1 V7P       0.020100
     20 H4          10.1810    -4.5980   -34.6110 ha         1 V7P       0.118000
     21 H5          12.0900    -6.1820   -30.3950 ha         1 V7P       0.130000
     22 H7           9.5910    -3.1250   -29.9490 hn         1 V7P       0.409000
     23 H8          10.2060    -4.5550   -29.5560 hn         1 V7P       0.409000
     24 H10          9.0500    -3.8110   -32.1810 h1         1 V7P       0.080700
     25 H11          9.3750    -6.1600   -32.8800 hc         1 V7P       0.055700
     26 H12         10.2540    -6.5240   -31.4370 hc         1 V7P       0.055700
     27 H6           7.1950    -5.4440   -31.7620 h4         1 V7P      -0.010800
@<TRIPOS>BOND
     1     1     2 ar  
     2     1     9 ar  
     3     1    13 1   
     4     2     3 ar  
     5     2    17 1   
     6     3     4 ar  
     7     3    18 1   
     8     4     8 ar  
     9     4    14 ar  
    10     5     6 ar  
    11     5    14 ar  
    12     5    19 1   
    13     6     7 ar  
    14     6    20 1   
    15     7     8 ar  
    16     7    16 1   
    17     8     9 ar  
    18     9    21 1   
    19    10    12 2   
    20    10    15 1   
    21    10    27 1   
    22    11    15 1   
    23    11    22 1   
    24    11    23 1   
    25    15    16 1   
    26    15    24 1   
    27    16    25 1   
    28    16    26 1   
@<TRIPOS>SUBSTRUCTURE
     1 V7P         1 TEMP              0 ****  ****    0 ROOT
