@<TRIPOS>MOLECULE
V7Q
   18    19     1     0     0
SMALL
abcg2


@<TRIPOS>ATOM
      1 N1          -0.5180   -31.1550     0.3350 n8         1 V7Q      -0.990200
      2 C1           0.8060   -30.5390     0.5880 c3         1 V7Q       0.209100
      3 C2           1.4300   -29.9500    -0.6450 ca         1 V7Q      -0.059300
      4 C3           1.7670   -28.6240    -0.7340 ca         1 V7Q      -0.103000
      5 C4           2.4000   -28.0620    -1.8780 ca         1 V7Q      -0.104000
      6 C5           2.6830   -28.8090    -2.9870 ca         1 V7Q      -0.061000
      7 C6           2.3390   -30.1820    -2.9580 ca         1 V7Q      -0.076000
      8 N2           2.5640   -31.0840    -3.9260 nc         1 V7Q      -0.306500
      9 S1           2.0710   -32.5150    -3.3540 ss         1 V7Q       0.581000
     10 N3           1.5350   -32.0810    -1.8930 nc         1 V7Q      -0.280500
     11 C7           1.7340   -30.7580    -1.7800 ca         1 V7Q      -0.074000
     12 H1          -1.1840   -30.8100     1.0160 hn         1 V7Q       0.396000
     13 H2          -0.8670   -30.8780    -0.5740 hn         1 V7Q       0.396000
     14 H3           0.7240   -29.7500     1.3380 h1         1 V7Q       0.048700
     15 H4           1.4830   -31.3000     0.9940 h1         1 V7Q       0.048700
     16 H5           1.5720   -27.9800     0.1140 ha         1 V7Q       0.117000
     17 H6           2.6350   -27.0050    -1.8690 ha         1 V7Q       0.121000
     18 H7           3.1700   -28.3870    -3.8550 ha         1 V7Q       0.138000
@<TRIPOS>BOND
     1     1     2 1   
     2     1    12 1   
     3     1    13 1   
     4     2     3 1   
     5     2    14 1   
     6     2    15 1   
     7     3     4 ar  
     8     3    11 ar  
     9     4     5 ar  
    10     4    16 1   
    11     5     6 ar  
    12     5    17 1   
    13     6     7 ar  
    14     6    18 1   
    15     7     8 2   
    16     7    11 ar  
    17     8     9 1   
    18     9    10 1   
    19    10    11 2   
@<TRIPOS>SUBSTRUCTURE
     1 V7Q         1 TEMP              0 ****  ****    0 ROOT
