@<TRIPOS>MOLECULE
V7Q
   18    19     1     0     0
SMALL
No Charge or Current Charge


@<TRIPOS>ATOM
      1 N1          -0.7530   -30.5560     0.3660 n8         1 V7Q      -0.990200
      2 C1           0.7200   -30.6800     0.4400 c3         1 V7Q       0.209100
      3 C2           1.4100   -30.0630    -0.7780 ca         1 V7Q      -0.059300
      4 C3           1.5530   -28.6610    -0.8570 ca         1 V7Q      -0.103000
      5 C4           2.1900   -28.0680    -1.9630 ca         1 V7Q      -0.104000
      6 C5           2.6940   -28.8720    -2.9990 ca         1 V7Q      -0.061000
      7 C6           2.5560   -30.2670    -2.9180 ca         1 V7Q      -0.076000
      8 N2           3.0200   -31.1350    -3.8840 nc         1 V7Q      -0.306500
      9 S1           2.6140   -32.6750    -3.3220 ss         1 V7Q       0.581000
     10 N3           1.8610   -32.2380    -1.8750 nc         1 V7Q      -0.280500
     11 C7           1.9260   -30.8580    -1.8290 ca         1 V7Q      -0.074000
     12 H1          -1.1590   -30.8910     1.2480 hn         1 V7Q       0.396000
     13 H2          -0.9970   -29.5600     0.3470 hn         1 V7Q       0.396000
     14 H3           1.0720   -30.1700     1.3480 h1         1 V7Q       0.048700
     15 H4           0.9840   -31.7430     0.5370 h1         1 V7Q       0.048700
     16 H5           1.1690   -28.0290    -0.0590 ha         1 V7Q       0.117000
     17 H6           2.2950   -26.9860    -2.0160 ha         1 V7Q       0.121000
     18 H7           3.1880   -28.4170    -3.8550 ha         1 V7Q       0.138000
@<TRIPOS>BOND
     1     1     2 1   
     2     1    12 1   
     3     1    13 1   
     4     2     3 1   
     5     2    14 1   
     6     2    15 1   
     7     3     4 ar  
     8     3    11 ar  
     9     4     5 ar  
    10     4    16 1   
    11     5     6 ar  
    12     5    17 1   
    13     6     7 ar  
    14     6    18 1   
    15     7     8 2   
    16     7    11 ar  
    17     8     9 1   
    18     9    10 1   
    19    10    11 2   
@<TRIPOS>SUBSTRUCTURE
     1 V7Q         1 TEMP              0 ****  ****    0 ROOT
