@<TRIPOS>MOLECULE
V7R
   36    37     1     0     0
SMALL
abcg2


@<TRIPOS>ATOM
      1 S01        -23.6830    26.4270    18.0790 sy         1 V7R       1.163600
      2 O02        -25.7950    24.9140    11.6930 oh         1 V7R      -0.658000
      3 O03        -23.7700    27.5110    19.0500 o          1 V7R      -0.552500
      4 O04        -22.3650    26.1100    17.5360 o          1 V7R      -0.552500
      5 N05        -24.7920    26.7940    16.9180 n7         1 V7R      -0.900300
      6 C07        -24.8780    25.9890    15.7000 c6         1 V7R       0.224500
      7 C08        -23.9580    26.4940    14.5910 c6         1 V7R      -0.088900
      8 C09        -26.3310    25.9610    15.2350 c6         1 V7R      -0.088900
      9 C10        -24.1360    25.6800    13.3140 c6         1 V7R      -0.090900
     10 C11        -26.4940    25.1600    13.9480 c6         1 V7R      -0.090900
     11 C12        -25.5890    25.6950    12.8510 c6         1 V7R       0.169300
     12 C13        -24.3450    24.9550    18.7640 ca         1 V7R      -0.348500
     13 C14        -25.6180    24.9830    19.3330 ca         1 V7R       0.044000
     14 C15        -23.5900    23.7880    18.8130 ca         1 V7R       0.044000
     15 C16        -26.1300    23.8600    19.9400 ca         1 V7R      -0.221000
     16 C17        -24.1000    22.6600    19.4230 ca         1 V7R      -0.221000
     17 C18        -25.3780    22.6710    20.0050 ca         1 V7R       0.377000
     18 H2         -24.8580    27.7970    16.7670 hn         1 V7R       0.486000
     19 H3         -26.8490    21.5350    20.8520 hn         1 V7R       0.475500
     20 H4         -25.4260    20.6870    20.4870 hn         1 V7R       0.475500
     21 H5         -24.5910    24.9640    15.9580 h1         1 V7R       0.064700
     22 H6         -22.9190    26.4600    14.9200 hc         1 V7R       0.052700
     23 H7         -24.1950    27.5460    14.3920 hc         1 V7R       0.052700
     24 H8         -26.6760    26.9890    15.0750 hc         1 V7R       0.052700
     25 H9         -26.9570    25.5400    16.0240 hc         1 V7R       0.052700
     26 H10        -23.8250    24.6430    13.4850 hc         1 V7R       0.052700
     27 H11        -23.4860    26.0790    12.5290 hc         1 V7R       0.052700
     28 H12        -27.5370    25.1910    13.6240 hc         1 V7R       0.052700
     29 H13        -26.2470    24.1090    14.1330 hc         1 V7R       0.052700
     30 H14        -25.8690    26.7440    12.6610 h1         1 V7R       0.027700
     31 H15        -26.2190    25.8830    19.2920 ha         1 V7R       0.131500
     32 H16        -22.6040    23.7510    18.3720 ha         1 V7R       0.131500
     33 H17        -27.1210    23.8900    20.3760 ha         1 V7R       0.116000
     34 H18        -23.5060    21.7550    19.4530 ha         1 V7R       0.116000
     35 H1         -25.2280    25.2560    10.9940 ho         1 V7R       0.443000
     36 N06        -25.8650    21.5790    20.6450 nv         1 V7R      -1.098000
@<TRIPOS>BOND
     1     1     3 2   
     2     1     4 2   
     3     1     5 1   
     4     1    12 1   
     5     2    11 1   
     6     2    35 1   
     7     5     6 1   
     8     5    18 1   
     9     6     7 1   
    10     6     8 1   
    11     6    21 1   
    12     7     9 1   
    13     7    22 1   
    14     7    23 1   
    15     8    10 1   
    16     8    24 1   
    17     8    25 1   
    18     9    11 1   
    19     9    26 1   
    20     9    27 1   
    21    10    11 1   
    22    10    28 1   
    23    10    29 1   
    24    11    30 1   
    25    12    13 ar  
    26    12    14 ar  
    27    13    15 ar  
    28    13    31 1   
    29    14    16 ar  
    30    14    32 1   
    31    15    17 ar  
    32    15    33 1   
    33    16    17 ar  
    34    16    34 1   
    35    17    36 1   
    36    19    36 1   
    37    20    36 1   
@<TRIPOS>SUBSTRUCTURE
     1 V7R         1 TEMP              0 ****  ****    0 ROOT
