@<TRIPOS>MOLECULE
V7R
   36    37     1     0     0
SMALL
No Charge or Current Charge


@<TRIPOS>ATOM
      1 S01        -23.9270    26.9610    18.2940 sy         1 V7R       1.163600
      2 O02        -25.8850    24.2490    12.2540 oh         1 V7R      -0.658000
      3 O03        -24.3940    27.8250    19.3790 o          1 V7R      -0.552500
      4 O04        -22.5640    27.0310    17.7650 o          1 V7R      -0.552500
      5 N05        -24.9440    27.3050    17.0080 n7         1 V7R      -0.900300
      6 C07        -25.2240    26.2360    16.0240 c6         1 V7R       0.224500
      7 C08        -23.9930    25.8740    15.1410 c6         1 V7R      -0.088900
      8 C09        -26.3940    26.7040    15.1200 c6         1 V7R      -0.088900
      9 C10        -24.3530    24.8110    14.0700 c6         1 V7R      -0.090900
     10 C11        -26.7590    25.6390    14.0540 c6         1 V7R      -0.090900
     11 C12        -25.5330    25.2780    13.1810 c6         1 V7R       0.169300
     12 C13        -24.3540    25.2640    18.6950 ca         1 V7R      -0.348500
     13 C14        -25.5850    24.9890    19.3200 ca         1 V7R       0.044000
     14 C15        -23.4690    24.2110    18.3870 ca         1 V7R       0.044000
     15 C16        -25.9300    23.6620    19.6260 ca         1 V7R      -0.221000
     16 C17        -23.8270    22.8890    18.6990 ca         1 V7R      -0.221000
     17 C18        -25.0530    22.6180    19.3160 ca         1 V7R       0.377000
     18 H2         -24.4440    28.0700    16.5610 hn         1 V7R       0.486000
     19 H3         -26.3540    21.1240    19.8820 hn         1 V7R       0.475500
     20 H4         -24.8500    20.5680    19.2190 hn         1 V7R       0.475500
     21 H5         -25.5730    25.3280    16.5370 h1         1 V7R       0.064700
     22 H6         -23.1750    25.4800    15.7540 hc         1 V7R       0.052700
     23 H7         -23.6070    26.7770    14.6470 hc         1 V7R       0.052700
     24 H8         -26.1290    27.6470    14.6210 hc         1 V7R       0.052700
     25 H9         -27.2760    26.9180    15.7390 hc         1 V7R       0.052700
     26 H10        -24.6120    23.8650    14.5670 hc         1 V7R       0.052700
     27 H11        -23.4720    24.6060    13.4460 hc         1 V7R       0.052700
     28 H12        -27.5710    26.0170    13.4180 hc         1 V7R       0.052700
     29 H13        -27.1440    24.7380    14.5510 hc         1 V7R       0.052700
     30 H14        -25.2210    26.1790    12.6320 h1         1 V7R       0.027700
     31 H15        -26.2770    25.7960    19.5600 ha         1 V7R       0.131500
     32 H16        -22.5100    24.4080    17.9100 ha         1 V7R       0.131500
     33 H17        -26.8820    23.4530    20.1060 ha         1 V7R       0.116000
     34 H18        -23.1440    22.0790    18.4610 ha         1 V7R       0.116000
     35 H1         -25.1060    24.1160    11.6710 ho         1 V7R       0.443000
     36 N06        -25.3940    21.3320    19.6150 nv         1 V7R      -1.098000
@<TRIPOS>BOND
     1     1     3 2   
     2     1     4 2   
     3     1     5 1   
     4     1    12 1   
     5     2    11 1   
     6     2    35 1   
     7     5     6 1   
     8     5    18 1   
     9     6     7 1   
    10     6     8 1   
    11     6    21 1   
    12     7     9 1   
    13     7    22 1   
    14     7    23 1   
    15     8    10 1   
    16     8    24 1   
    17     8    25 1   
    18     9    11 1   
    19     9    26 1   
    20     9    27 1   
    21    10    11 1   
    22    10    28 1   
    23    10    29 1   
    24    11    30 1   
    25    12    13 ar  
    26    12    14 ar  
    27    13    15 ar  
    28    13    31 1   
    29    14    16 ar  
    30    14    32 1   
    31    15    17 ar  
    32    15    33 1   
    33    16    17 ar  
    34    16    34 1   
    35    17    36 1   
    36    19    36 1   
    37    20    36 1   
@<TRIPOS>SUBSTRUCTURE
     1 V7R         1 TEMP              0 ****  ****    0 ROOT
