@<TRIPOS>MOLECULE
V7S
   26    26     1     0     0
SMALL
No Charge or Current Charge


@<TRIPOS>ATOM
      1 C1          14.8070   -13.1350   -35.2130 c3         1 V7S       0.038900
      2 S2          15.5510   -11.5660   -34.5770 ss         1 V7S      -0.430500
      3 C3          16.1620   -10.8380   -36.1640 c3         1 V7S       0.112400
      4 C4          16.8400    -9.4980   -35.9160 ca         1 V7S      -0.081800
      5 C5          18.2180    -9.4430   -35.6260 ca         1 V7S      -0.074000
      6 C6          18.8530    -8.2080   -35.3940 ca         1 V7S      -0.081800
      7 C7          20.3420    -8.1610   -35.0770 c3         1 V7S       0.112400
      8 S8          20.6980    -8.8740   -33.4050 ss         1 V7S      -0.430500
      9 C9          19.6940    -7.7400   -32.3410 c3         1 V7S       0.038900
     10 C10         18.0990    -7.0190   -35.4560 ca         1 V7S      -0.096500
     11 C11         16.7250    -7.0690   -35.7430 ca         1 V7S      -0.111000
     12 C12         16.0960    -8.3040   -35.9720 ca         1 V7S      -0.096500
     13 H1          14.3840   -13.7100   -34.3800 h1         1 V7S       0.060200
     14 H2          14.0100   -12.9070   -35.9320 h1         1 V7S       0.060200
     15 H3          15.5780   -13.7390   -35.7100 h1         1 V7S       0.060200
     16 H4          15.3150   -10.7060   -36.8510 h1         1 V7S       0.068450
     17 H5          16.8710   -11.5340   -36.6310 h1         1 V7S       0.068450
     18 H6          18.7960   -10.3640   -35.5740 ha         1 V7S       0.123000
     19 H7          20.8950    -8.7330   -35.8340 h1         1 V7S       0.068450
     20 H8          20.7040    -7.1250   -35.1090 h1         1 V7S       0.068450
     21 H9          19.8380    -7.9980   -31.2850 h1         1 V7S       0.060200
     22 H10         20.0080    -6.7000   -32.5030 h1         1 V7S       0.060200
     23 H11         18.6290    -7.8370   -32.5900 h1         1 V7S       0.060200
     24 H12         18.5760    -6.0580   -35.2770 ha         1 V7S       0.114000
     25 H13         16.1460    -6.1490   -35.7870 ha         1 V7S       0.115000
     26 H14         15.0310    -8.3340   -36.1910 ha         1 V7S       0.114000
@<TRIPOS>BOND
     1     1     2 1   
     2     1    13 1   
     3     1    14 1   
     4     1    15 1   
     5     2     3 1   
     6     3     4 1   
     7     3    16 1   
     8     3    17 1   
     9     4     5 ar  
    10     4    12 ar  
    11     5     6 ar  
    12     5    18 1   
    13     6     7 1   
    14     6    10 ar  
    15     7     8 1   
    16     7    19 1   
    17     7    20 1   
    18     8     9 1   
    19     9    21 1   
    20     9    22 1   
    21     9    23 1   
    22    10    11 ar  
    23    10    24 1   
    24    11    12 ar  
    25    11    25 1   
    26    12    26 1   
@<TRIPOS>SUBSTRUCTURE
     1 V7S         1 TEMP              0 ****  ****    0 ROOT
