@<TRIPOS>MOLECULE
V7S
   26    26     1     0     0
SMALL
abcg2


@<TRIPOS>ATOM
      1 C1          14.8470   -13.0610   -35.2340 c3         1 V7S       0.038900
      2 S2          15.5650   -11.5100   -34.6490 ss         1 V7S      -0.430500
      3 C3          16.1700   -10.8340   -36.2280 c3         1 V7S       0.112400
      4 C4          16.8320    -9.5170   -35.9580 ca         1 V7S      -0.081800
      5 C5          18.1850    -9.4600   -35.6460 ca         1 V7S      -0.074000
      6 C6          18.8140    -8.2480   -35.3730 ca         1 V7S      -0.081800
      7 C7          20.2740    -8.2040   -35.0400 c3         1 V7S       0.112400
      8 S8          20.6520    -8.8520   -33.3820 ss         1 V7S      -0.430500
      9 C9          19.7400    -7.6770   -32.3600 c3         1 V7S       0.038900
     10 C10         18.0600    -7.0790   -35.4020 ca         1 V7S      -0.096500
     11 C11         16.7030    -7.1240   -35.7020 ca         1 V7S      -0.111000
     12 C12         16.0910    -8.3370   -35.9760 ca         1 V7S      -0.096500
     13 H1          14.4540   -13.5920   -34.3690 h1         1 V7S       0.060200
     14 H2          14.0310   -12.8780   -35.9320 h1         1 V7S       0.060200
     15 H3          15.6010   -13.6850   -35.7140 h1         1 V7S       0.060200
     16 H4          15.3280   -10.7160   -36.9120 h1         1 V7S       0.068450
     17 H5          16.8710   -11.5440   -36.6720 h1         1 V7S       0.068450
     18 H6          18.7640   -10.3770   -35.6190 ha         1 V7S       0.123000
     19 H7          20.8520    -8.8300   -35.7230 h1         1 V7S       0.068450
     20 H8          20.6610    -7.1880   -35.1200 h1         1 V7S       0.068450
     21 H9          19.9500    -7.9200   -31.3200 h1         1 V7S       0.060200
     22 H10         20.0630    -6.6540   -32.5510 h1         1 V7S       0.060200
     23 H11         18.6660    -7.7530   -32.5250 h1         1 V7S       0.060200
     24 H12         18.5340    -6.1280   -35.1930 ha         1 V7S       0.114000
     25 H13         16.1250    -6.2100   -35.7250 ha         1 V7S       0.115000
     26 H14         15.0340    -8.3690   -36.2130 ha         1 V7S       0.114000
@<TRIPOS>BOND
     1     1     2 1   
     2     1    13 1   
     3     1    14 1   
     4     1    15 1   
     5     2     3 1   
     6     3     4 1   
     7     3    16 1   
     8     3    17 1   
     9     4     5 ar  
    10     4    12 ar  
    11     5     6 ar  
    12     5    18 1   
    13     6     7 1   
    14     6    10 ar  
    15     7     8 1   
    16     7    19 1   
    17     7    20 1   
    18     8     9 1   
    19     9    21 1   
    20     9    22 1   
    21     9    23 1   
    22    10    11 ar  
    23    10    24 1   
    24    11    12 ar  
    25    11    25 1   
    26    12    26 1   
@<TRIPOS>SUBSTRUCTURE
     1 V7S         1 TEMP              0 ****  ****    0 ROOT
