@<TRIPOS>MOLECULE
V7T
   28    27     1     0     0
SMALL
No Charge or Current Charge


@<TRIPOS>ATOM
      1 N1           6.4030   -10.6200     4.1330 n2         1 V7T      -0.965100
      2 N2           4.5320    -9.6960     3.4580 nv         1 V7T      -1.000200
      3 CA           3.5430   -12.4510     4.3020 c3         1 V7T       0.073500
      4 CD           0.6780   -14.2410     6.3990 c3         1 V7T      -0.070400
      5 CE          -0.3570   -15.3580     6.1280 c3         1 V7T       0.148800
      6 NZ          -1.3520   -14.9700     5.1120 n8         1 V7T      -0.983200
      7 CB           2.6480   -12.8300     5.5110 c3         1 V7T      -0.062400
      8 C2           5.2190   -10.7330     3.7940 c2         1 V7T       0.821100
      9 N            4.4140   -11.2900     4.6740 nu         1 V7T      -0.917400
     10 C            4.3520   -13.6910     3.7350 c          1 V7T       0.711000
     11 O            5.1610   -14.2520     4.4650 o          1 V7T      -0.722500
     12 H1           6.6340   -11.4550     4.6800 hn         1 V7T       0.359400
     13 H2           3.6840    -9.7680     3.9950 hn         1 V7T       0.450500
     14 H3           5.0690    -8.8710     3.6630 hn         1 V7T       0.450500
     15 HA           2.8730   -12.1260     3.4950 h1         1 V7T       0.037700
     16 HD2          0.1550   -13.3320     6.7210 hc         1 V7T       0.024700
     17 HD3          1.3070   -14.5550     7.2410 hc         1 V7T       0.024700
     18 HE2          0.1580   -16.2680     5.7900 h1         1 V7T       0.019200
     19 HE3         -0.8900   -15.5900     7.0600 h1         1 V7T       0.019200
     20 HZ1         -2.0570   -15.7130     5.0340 hn         1 V7T       0.378500
     21 HZ2         -1.8850   -14.1650     5.4590 hn         1 V7T       0.378500
     22 HG2          2.0940   -14.8330     4.8690 hc         1 V7T       0.062700
     23 HG3          0.9750   -13.5740     4.3500 hc         1 V7T       0.062700
     24 HB2          3.2790   -13.1740     6.3400 hc         1 V7T       0.018700
     25 HB3          2.1270   -11.9300     5.8630 hc         1 V7T       0.018700
     26 H            4.8750   -11.3870     5.5700 hn         1 V7T       0.449000
     27 OXT          4.1930   -13.9990     2.5610 o          1 V7T      -0.722500
     28 CG           1.5910   -13.9140     5.1920 c3         1 V7T      -0.066400
@<TRIPOS>BOND
     1     1     8 2   
     2     1    12 1   
     3     2     8 1   
     4     2    13 1   
     5     2    14 1   
     6     3     7 1   
     7     3     9 1   
     8     3    10 1   
     9     3    15 1   
    10     4     5 1   
    11     4    16 1   
    12     4    17 1   
    13     4    28 1   
    14     5     6 1   
    15     5    18 1   
    16     5    19 1   
    17     6    20 1   
    18     6    21 1   
    19     7    24 1   
    20     7    25 1   
    21     7    28 1   
    22     8     9 1   
    23     9    26 1   
    24    10    11 1   
    25    10    27 1   
    26    22    28 1   
    27    23    28 1   
@<TRIPOS>SUBSTRUCTURE
     1 V7T         1 TEMP              0 ****  ****    0 ROOT
