@<TRIPOS>MOLECULE
V7T
   28    27     1     0     0
SMALL
abcg2


@<TRIPOS>ATOM
      1 N1           6.3380   -10.0870     4.7710 n2         1 V7T      -0.965100
      2 N2           4.9390   -10.4470     2.9870 nv         1 V7T      -1.000200
      3 CA           3.4210   -12.2780     4.4630 c3         1 V7T       0.073500
      4 CD           0.7800   -14.4490     6.3690 c3         1 V7T      -0.070400
      5 CE          -0.3310   -15.4190     5.9920 c3         1 V7T       0.148800
      6 NZ          -1.3790   -14.7640     5.2200 n8         1 V7T      -0.983200
      7 CB           2.6620   -12.9450     5.6110 c3         1 V7T      -0.062400
      8 C2           5.2520   -10.6050     4.3170 c2         1 V7T       0.821100
      9 N            4.3370   -11.3120     5.0520 nu         1 V7T      -0.917400
     10 C            4.1270   -13.3470     3.5880 c          1 V7T       0.711000
     11 O            5.2170   -13.7750     4.0140 o          1 V7T      -0.722500
     12 H1           6.4880   -10.3600     5.7360 hn         1 V7T       0.359400
     13 H2           3.9640   -10.4060     2.7400 hn         1 V7T       0.450500
     14 H3           5.4830    -9.7320     2.5310 hn         1 V7T       0.450500
     15 HA           2.6850   -11.7450     3.8500 h1         1 V7T       0.037700
     16 HD2          0.3620   -13.6350     6.9720 hc         1 V7T       0.024700
     17 HD3          1.4830   -14.9730     7.0250 hc         1 V7T       0.024700
     18 HE2          0.0910   -16.2220     5.3800 h1         1 V7T       0.019200
     19 HE3         -0.7040   -15.8970     6.9090 h1         1 V7T       0.019200
     20 HZ1         -2.0840   -15.4430     4.9650 hn         1 V7T       0.378500
     21 HZ2         -1.8500   -14.0900     5.8110 hn         1 V7T       0.378500
     22 HG2          1.9350   -14.7020     4.5820 hc         1 V7T       0.062700
     23 HG3          0.8460   -13.3350     4.5260 hc         1 V7T       0.062700
     24 HB2          3.3780   -13.4990     6.2300 hc         1 V7T       0.018700
     25 HB3          2.2450   -12.1600     6.2520 hc         1 V7T       0.018700
     26 H            4.6830   -11.5760     5.9620 hn         1 V7T       0.449000
     27 OXT          3.5190   -13.7070     2.5610 o          1 V7T      -0.722500
     28 CG           1.5370   -13.8750     5.1780 c3         1 V7T      -0.066400
@<TRIPOS>BOND
     1     1     8 2   
     2     1    12 1   
     3     2     8 1   
     4     2    13 1   
     5     2    14 1   
     6     3     7 1   
     7     3     9 1   
     8     3    10 1   
     9     3    15 1   
    10     4     5 1   
    11     4    16 1   
    12     4    17 1   
    13     4    28 1   
    14     5     6 1   
    15     5    18 1   
    16     5    19 1   
    17     6    20 1   
    18     6    21 1   
    19     7    24 1   
    20     7    25 1   
    21     7    28 1   
    22     8     9 1   
    23     9    26 1   
    24    10    11 1   
    25    10    27 1   
    26    22    28 1   
    27    23    28 1   
@<TRIPOS>SUBSTRUCTURE
     1 V7T         1 TEMP              0 ****  ****    0 ROOT
