@<TRIPOS>MOLECULE
V7U
   18    18     1     0     0
SMALL
abcg2


@<TRIPOS>ATOM
      1 C35         33.1530    48.5920    41.3190 ca         1 V7U       0.457000
      2 C36         33.9730    47.7620    42.1310 ca         1 V7U      -0.242000
      3 C37         33.6590    47.4580    43.4200 ca         1 V7U       0.048000
      4 C38         32.4860    47.9760    43.9890 ca         1 V7U      -0.270200
      5 C39         31.6510    48.7780    43.2490 ca         1 V7U       0.077000
      6 C40         31.9670    49.0880    41.9320 ca         1 V7U      -0.311200
      7 N33         33.5450    48.8340    40.0740 nv         1 V7U      -1.069000
      8 N41         32.1500    47.6690    45.3540 no         1 V7U       0.709200
      9 N42         31.0380    49.9290    41.2270 no         1 V7U       0.714200
     10 O43         30.0310    50.2850    41.7940 o          1 V7U      -0.412500
     11 O44         31.2990    50.2500    40.0840 o          1 V7U      -0.412500
     12 O45         31.1490    48.1600    45.8270 o          1 V7U      -0.400500
     13 O46         32.8900    46.9320    45.9660 o          1 V7U      -0.400500
     14 H1          34.8800    47.3630    41.6960 ha         1 V7U       0.132000
     15 H2          34.3210    46.8230    43.9910 ha         1 V7U       0.156000
     16 H3          30.7460    49.1730    43.6850 ha         1 V7U       0.183000
     17 H4          34.4070    48.4350    39.7370 hn         1 V7U       0.521000
     18 H5          33.0170    49.4190    39.4510 hn         1 V7U       0.521000
@<TRIPOS>BOND
     1     1     2 ar  
     2     1     6 ar  
     3     1     7 1   
     4     2     3 ar  
     5     2    14 1   
     6     3     4 ar  
     7     3    15 1   
     8     4     5 ar  
     9     4     8 1   
    10     5     6 ar  
    11     5    16 1   
    12     6     9 1   
    13     7    17 1   
    14     7    18 1   
    15     8    12 1   
    16     8    13 1   
    17     9    10 1   
    18     9    11 1   
@<TRIPOS>SUBSTRUCTURE
     1 V7U         1 TEMP              0 ****  ****    0 ROOT
