@<TRIPOS>MOLECULE
V7U
   18    18     1     0     0
SMALL
No Charge or Current Charge


@<TRIPOS>ATOM
      1 C35         33.1100    48.5120    41.3160 ca         1 V7U       0.457000
      2 C36         33.9500    47.6970    42.0800 ca         1 V7U      -0.242000
      3 C37         33.6640    47.4290    43.4260 ca         1 V7U       0.048000
      4 C38         32.5120    47.9820    44.0220 ca         1 V7U      -0.270200
      5 C39         31.6600    48.8030    43.2500 ca         1 V7U       0.077000
      6 C40         31.9600    49.0730    41.8960 ca         1 V7U      -0.311200
      7 N33         33.4410    48.7100    40.0110 nv         1 V7U      -1.069000
      8 N41         32.1960    47.7020    45.4550 no         1 V7U       0.709200
      9 N42         31.0310    49.9320    41.1220 no         1 V7U       0.714200
     10 O43         29.8330    49.9050    41.4320 o          1 V7U      -0.412500
     11 O44         31.5070    50.7310    40.3040 o          1 V7U      -0.412500
     12 O45         31.1750    48.2080    45.9380 o          1 V7U      -0.400500
     13 O46         32.9700    46.9770    46.0940 o          1 V7U      -0.400500
     14 H1          34.8360    47.2580    41.6300 ha         1 V7U       0.132000
     15 H2          34.3410    46.7900    43.9940 ha         1 V7U       0.156000
     16 H3          30.7670    49.2370    43.7030 ha         1 V7U       0.183000
     17 H4          34.3840    48.4690    39.7150 hn         1 V7U       0.521000
     18 H5          33.0260    49.5100    39.5370 hn         1 V7U       0.521000
@<TRIPOS>BOND
     1     1     2 ar  
     2     1     6 ar  
     3     1     7 1   
     4     2     3 ar  
     5     2    14 1   
     6     3     4 ar  
     7     3    15 1   
     8     4     5 ar  
     9     4     8 1   
    10     5     6 ar  
    11     5    16 1   
    12     6     9 1   
    13     7    17 1   
    14     7    18 1   
    15     8    12 1   
    16     8    13 1   
    17     9    10 1   
    18     9    11 1   
@<TRIPOS>SUBSTRUCTURE
     1 V7U         1 TEMP              0 ****  ****    0 ROOT
