@<TRIPOS>MOLECULE
V7V
   29    31     1     0     0
SMALL
bcc


@<TRIPOS>ATOM
      1 N           -3.8380    -1.3290    -0.6010 nc         1 V7V      -0.393000
      2 O            5.8870    -0.4270    -0.8500 o          1 V7V      -0.822800
      3 C1           3.5880    -0.3930    -0.3150 ca         1 V7V      -0.139600
      4 C10         -1.2550    -0.0980    -0.0280 ca         1 V7V      -0.078000
      5 C11          1.2610    -1.5870     0.6670 ca         1 V7V      -0.133000
      6 C12          2.4490    -2.3010     0.6240 ca         1 V7V      -0.166000
      7 C13          3.6050    -1.7090     0.1370 ca         1 V7V      -0.088000
      8 C2           2.3910     0.3140    -0.2650 ca         1 V7V      -0.084000
      9 C3           1.2200    -0.2650     0.2220 cp         1 V7V      -0.103000
     10 C4          -0.0380     0.5080     0.2650 cp         1 V7V       0.010000
     11 C5          -0.0330     1.8650     0.5970 ca         1 V7V      -0.097000
     12 C6          -1.2130     2.5900     0.6340 ca         1 V7V      -0.136000
     13 C7          -2.4210     1.9790     0.3410 ca         1 V7V      -0.135000
     14 C8          -2.4440     0.6270     0.0060 ca         1 V7V      -0.163500
     15 C9          -3.6910    -0.0520    -0.3210 cd         1 V7V       0.480000
     16 N1          -5.1330    -1.5180    -0.8380 nc         1 V7V      -0.050000
     17 N2          -5.7860    -0.4310    -0.7180 nd         1 V7V      -0.227800
     18 N3          -4.9060     0.4990    -0.3950 na         1 V7V      -0.167400
     19 O1           4.7370     1.4330    -1.2770 o          1 V7V      -0.822800
     20 H5          -1.2820    -1.1430    -0.3080 ha         1 V7V       0.161000
     21 H6           0.3690    -2.0530     1.0690 ha         1 V7V       0.109000
     22 H7           2.4720    -3.3240     0.9800 ha         1 V7V       0.109000
     23 H8           4.5290    -2.2720     0.1100 ha         1 V7V       0.148000
     24 H            2.3750     1.3320    -0.6340 ha         1 V7V       0.147000
     25 H1           0.8990     2.3550     0.8480 ha         1 V7V       0.152000
     26 H2          -1.1940     3.6380     0.9000 ha         1 V7V       0.128000
     27 H3          -3.3300     2.5670     0.3810 ha         1 V7V       0.108000
     28 H4          -5.2050     1.4540    -0.2530 hn         1 V7V       0.331700
     29 C            4.8510     0.2640    -0.8640 c          1 V7V       0.924200
@<TRIPOS>BOND
     1     1    15 2   
     2     1    16 1   
     3     2    29 1   
     4     3     7 ar  
     5     3     8 ar  
     6     3    29 1   
     7     4    10 ar  
     8     4    14 ar  
     9     4    20 1   
    10     5     6 ar  
    11     5     9 ar  
    12     5    21 1   
    13     6     7 ar  
    14     6    22 1   
    15     7    23 1   
    16     8     9 ar  
    17     8    24 1   
    18     9    10 1   
    19    10    11 ar  
    20    11    12 ar  
    21    11    25 1   
    22    12    13 ar  
    23    12    26 1   
    24    13    14 ar  
    25    13    27 1   
    26    14    15 1   
    27    15    18 1   
    28    16    17 2   
    29    17    18 1   
    30    18    28 1   
    31    19    29 1   
@<TRIPOS>SUBSTRUCTURE
     1 V7V         1 TEMP              0 ****  ****    0 ROOT
