@<TRIPOS>MOLECULE
V7V
   29    31     1     0     0
SMALL
No Charge or Current Charge


@<TRIPOS>ATOM
      1 N           -3.9010    -1.3290    -0.6310 nc         1 V7V      -0.393000
      2 O            5.9680    -0.4080    -0.8430 o          1 V7V      -0.717500
      3 C1           3.6670    -0.3940    -0.3020 ca         1 V7V      -0.139600
      4 C10         -1.2750    -0.1020    -0.0430 ca         1 V7V      -0.060000
      5 C11          1.2920    -1.6080     0.6410 ca         1 V7V      -0.115000
      6 C12          2.4900    -2.3370     0.6080 ca         1 V7V      -0.148000
      7 C13          3.6700    -1.7370     0.1410 ca         1 V7V      -0.070000
      8 C2           2.4500     0.3270    -0.2620 ca         1 V7V      -0.066000
      9 C3           1.2460    -0.2610     0.2070 cp         1 V7V      -0.103000
     10 C4          -0.0330     0.5180     0.2430 cp         1 V7V       0.010000
     11 C5          -0.0390     1.8980     0.5630 ca         1 V7V      -0.079000
     12 C6          -1.2380     2.6250     0.5970 ca         1 V7V      -0.118000
     13 C7          -2.4580     1.9930     0.3100 ca         1 V7V      -0.117000
     14 C8          -2.4920     0.6190    -0.0140 ca         1 V7V      -0.163500
     15 C9          -3.7750    -0.0530    -0.3190 cd         1 V7V       0.480000
     16 N1          -5.2460    -1.5320    -0.8340 nc         1 V7V      -0.050000
     17 N2          -5.9410    -0.4420    -0.6610 nd         1 V7V      -0.227800
     18 N3          -5.0240     0.5070    -0.3330 na         1 V7V      -0.217700
     19 O1           4.8990     1.4260    -1.1730 o          1 V7V      -0.717500
     20 H5          -1.2840    -1.1570    -0.3040 ha         1 V7V       0.143000
     21 H6           0.3940    -2.0910     1.0200 ha         1 V7V       0.091000
     22 H7           2.5060    -3.3690     0.9490 ha         1 V7V       0.091000
     23 H8           4.5880    -2.3210     0.1240 ha         1 V7V       0.130000
     24 H            2.4300     1.3560    -0.6130 ha         1 V7V       0.129000
     25 H1           0.8920     2.4050     0.8020 ha         1 V7V       0.134000
     26 H2          -1.2230     3.6840     0.8490 ha         1 V7V       0.110000
     27 H3          -3.3720     2.5790     0.3440 ha         1 V7V       0.090000
     28 H4          -5.2670     1.4690    -0.1380 hn         1 V7V       0.382000
     29 C            4.9420     0.2580    -0.8120 c          1 V7V       0.713600
@<TRIPOS>BOND
     1     1    15 2   
     2     1    16 1   
     3     2    29 1   
     4     3     7 ar  
     5     3     8 ar  
     6     3    29 1   
     7     4    10 ar  
     8     4    14 ar  
     9     4    20 1   
    10     5     6 ar  
    11     5     9 ar  
    12     5    21 1   
    13     6     7 ar  
    14     6    22 1   
    15     7    23 1   
    16     8     9 ar  
    17     8    24 1   
    18     9    10 1   
    19    10    11 ar  
    20    11    12 ar  
    21    11    25 1   
    22    12    13 ar  
    23    12    26 1   
    24    13    14 ar  
    25    13    27 1   
    26    14    15 1   
    27    15    18 1   
    28    16    17 2   
    29    17    18 1   
    30    18    28 1   
    31    19    29 1   
@<TRIPOS>SUBSTRUCTURE
     1 V7V         1 TEMP              0 ****  ****    0 ROOT
