@<TRIPOS>MOLECULE
V7X
   28    29     1     0     0
SMALL
No Charge or Current Charge


@<TRIPOS>ATOM
      1 N1          15.1360    12.3700   -45.4270 nh         1 V7X      -0.758300
      2 C7          16.0950    13.3240   -47.3630 c5         1 V7X      -0.085400
      3 C8          16.1430    13.3950   -45.8140 c5         1 V7X       0.193300
      4 N2          14.0150     8.9060   -43.9870 n8         1 V7X      -0.999200
      5 C9          14.9870     9.9550   -43.6200 c3         1 V7X       0.202100
      6 C1          13.5580    11.4460   -42.1650 ca         1 V7X      -0.056000
      7 C5          14.7000    11.5460   -46.5820 c5         1 V7X       0.193300
      8 C6          15.8420    11.8140   -47.5950 c5         1 V7X      -0.085400
      9 C4          13.1600    13.7400   -42.8200 ca         1 V7X       0.374900
     10 C3          14.4250    12.4020   -44.2170 ca         1 V7X       0.608900
     11 C2          14.2990    11.2850   -43.3510 ca         1 V7X      -0.156300
     12 N           13.8730    13.6030   -43.9570 nb         1 V7X      -0.742000
     13 C           12.9770    12.6940   -41.9040 ca         1 V7X      -0.205000
     14 H1          17.0230    13.6780   -47.8260 hc         1 V7X       0.046950
     15 H2          15.2740    13.9310   -47.7620 hc         1 V7X       0.046950
     16 H3          17.1380    13.1260   -45.4320 h1         1 V7X       0.054200
     17 H4          15.8980    14.4050   -45.4550 h1         1 V7X       0.054200
     18 H5          14.5080     8.0080   -44.0630 hn         1 V7X       0.393500
     19 H6          13.3700     8.7650   -43.2020 hn         1 V7X       0.393500
     20 H8          15.5160     9.6360   -42.7110 h1         1 V7X       0.040200
     21 H9          15.7360    10.0480   -44.4170 h1         1 V7X       0.040200
     22 H10         13.4420    10.6250   -41.4600 ha         1 V7X       0.108000
     23 H11         13.7330    11.8960   -46.9710 h1         1 V7X       0.054200
     24 H12         14.6130    10.4770   -46.3470 h1         1 V7X       0.054200
     25 H13         15.5490    11.5830   -48.6250 hc         1 V7X       0.046950
     26 H14         16.7310    11.2170   -47.3610 hc         1 V7X       0.046950
     27 H15         12.7230    14.7210   -42.6370 h4         1 V7X       0.014100
     28 H16         12.3960    12.8600   -41.0010 ha         1 V7X       0.123000
@<TRIPOS>BOND
     1     1     3 1   
     2     1     7 1   
     3     1    10 1   
     4     2     3 1   
     5     2     8 1   
     6     2    14 1   
     7     2    15 1   
     8     3    16 1   
     9     3    17 1   
    10     4     5 1   
    11     4    18 1   
    12     4    19 1   
    13     5    11 1   
    14     5    20 1   
    15     5    21 1   
    16     6    11 ar  
    17     6    13 ar  
    18     6    22 1   
    19     7     8 1   
    20     7    23 1   
    21     7    24 1   
    22     8    25 1   
    23     8    26 1   
    24     9    12 ar  
    25     9    13 ar  
    26     9    27 1   
    27    10    11 ar  
    28    10    12 ar  
    29    13    28 1   
@<TRIPOS>SUBSTRUCTURE
     1 V7X         1 TEMP              0 ****  ****    0 ROOT
