@<TRIPOS>MOLECULE
V7X
   28    29     1     0     0
SMALL
abcg2


@<TRIPOS>ATOM
      1 N1          15.2050    12.3680   -45.3610 nh         1 V7X      -0.758300
      2 C7          16.2850    13.1550   -47.3020 c5         1 V7X      -0.085400
      3 C8          15.6130    13.6110   -45.9970 c5         1 V7X       0.193300
      4 N2          13.9430     9.0680   -44.3740 n8         1 V7X      -0.999200
      5 C9          14.9020     9.9110   -43.6660 c3         1 V7X       0.202100
      6 C1          13.6430    11.4430   -42.1700 ca         1 V7X      -0.056000
      7 C5          14.7680    11.4870   -46.4400 c5         1 V7X       0.193300
      8 C6          15.8570    11.6870   -47.4840 c5         1 V7X      -0.085400
      9 C4          13.5070    13.7620   -42.5900 ca         1 V7X       0.374900
     10 C3          14.5320    12.4230   -44.1560 ca         1 V7X       0.608900
     11 C2          14.3360    11.2710   -43.3550 ca         1 V7X      -0.156300
     12 N           14.1460    13.6300   -43.7460 nb         1 V7X      -0.742000
     13 C           13.1970    12.6970   -41.7700 ca         1 V7X      -0.205000
     14 H1          17.3690    13.2440   -47.2420 hc         1 V7X       0.046950
     15 H2          15.9590    13.7780   -48.1350 hc         1 V7X       0.046950
     16 H3          16.2810    14.1750   -45.3460 h1         1 V7X       0.054200
     17 H4          14.7540    14.2570   -46.2150 h1         1 V7X       0.054200
     18 H5          14.3700     8.1670   -44.5560 hn         1 V7X       0.393500
     19 H6          13.1520     8.8820   -43.7700 hn         1 V7X       0.393500
     20 H8          15.2360     9.4680   -42.7180 h1         1 V7X       0.040200
     21 H9          15.7960    10.0140   -44.2830 h1         1 V7X       0.040200
     22 H10         13.4800    10.5840   -41.5270 ha         1 V7X       0.108000
     23 H11         13.7940    11.8170   -46.8320 h1         1 V7X       0.054200
     24 H12         14.6520    10.4570   -46.1160 h1         1 V7X       0.054200
     25 H13         15.4990    11.4700   -48.4900 hc         1 V7X       0.046950
     26 H14         16.6910    11.0140   -47.2800 hc         1 V7X       0.046950
     27 H15         13.2310    14.7730   -42.3090 h4         1 V7X       0.014100
     28 H16         12.6630    12.8420   -40.8410 ha         1 V7X       0.123000
@<TRIPOS>BOND
     1     1     3 1   
     2     1     7 1   
     3     1    10 1   
     4     2     3 1   
     5     2     8 1   
     6     2    14 1   
     7     2    15 1   
     8     3    16 1   
     9     3    17 1   
    10     4     5 1   
    11     4    18 1   
    12     4    19 1   
    13     5    11 1   
    14     5    20 1   
    15     5    21 1   
    16     6    11 ar  
    17     6    13 ar  
    18     6    22 1   
    19     7     8 1   
    20     7    23 1   
    21     7    24 1   
    22     8    25 1   
    23     8    26 1   
    24     9    12 ar  
    25     9    13 ar  
    26     9    27 1   
    27    10    11 ar  
    28    10    12 ar  
    29    13    28 1   
@<TRIPOS>SUBSTRUCTURE
     1 V7X         1 TEMP              0 ****  ****    0 ROOT
