@<TRIPOS>MOLECULE
V7Y
   64    69     1     0     0
SMALL
bcc


@<TRIPOS>ATOM
      1 C1         -16.0450    22.6690   -13.9930 c3         1 V7Y       0.044600
      2 C3         -17.4670    20.8810   -14.9900 cc         1 V7Y      -0.097300
      3 C4         -18.0710    19.7360   -14.4920 cd         1 V7Y      -0.168300
      4 C5         -17.7000    19.7280   -13.1290 cd         1 V7Y       0.333200
      5 C7         -18.8650    18.8100   -15.1940 ch         1 V7Y      -0.035000
      6 C8         -19.5470    18.0470   -15.8370 cg         1 V7Y      -0.118000
      7 C11        -21.4580    14.9100   -16.2100 ca         1 V7Y      -0.094000
      8 C12        -21.9420    14.9890   -17.4950 ca         1 V7Y      -0.146000
      9 C15        -21.8800    17.2840   -20.3870 cc         1 V7Y       0.069400
     10 C17        -20.7740    19.4470   -20.6840 ca         1 V7Y       0.027600
     11 C18        -21.5340    20.6010   -20.5760 ca         1 V7Y      -0.108500
     12 C19        -21.2140    21.7060   -21.3520 ca         1 V7Y      -0.128500
     13 C21        -19.3780    20.4950   -22.3250 ca         1 V7Y      -0.128500
     14 C23        -20.5390    18.2970   -18.6100 c          1 V7Y       0.721100
     15 C30        -21.4490    15.5170   -22.8630 c          1 V7Y       0.732300
     16 C32        -21.6620    14.2320   -23.5080 cc         1 V7Y      -0.423800
     17 C33        -22.8610    13.5740   -23.7660 cd         1 V7Y       0.430500
     18 C35        -25.0530    13.0310   -23.8840 cc         1 V7Y       0.467200
     19 C36        -24.7630    11.8290   -24.5470 cc         1 V7Y      -0.328300
     20 C37        -23.4530    11.5310   -24.8090 cd         1 V7Y       0.016700
     21 C40        -20.6700    13.3670   -24.0440 cc         1 V7Y       0.679500
     22 N2         -16.8170    21.4490   -13.9700 na         1 V7Y       0.110400
     23 N6         -16.9480    20.7650   -12.8340 nc         1 V7Y      -0.532800
     24 C9         -20.3540    17.0520   -16.4520 ca         1 V7Y       0.113000
     25 C10        -20.6700    15.9330   -15.6880 ca         1 V7Y      -0.148000
     26 C13        -21.6460    16.1050   -18.2920 ca         1 V7Y       0.025200
     27 C14        -22.1490    16.2080   -19.6240 cd         1 V7Y      -0.214200
     28 N16        -21.1010    18.3060   -19.8820 n          1 V7Y      -0.285200
     29 C20        -20.1380    21.6540   -22.2280 ca         1 V7Y      -0.124000
     30 C22        -19.6930    19.3880   -21.5510 ca         1 V7Y      -0.108500
     31 C25        -20.8500    17.1410   -17.7750 ca         1 V7Y      -0.151600
     32 C26        -22.4740    17.4380   -21.7760 c3         1 V7Y       0.157900
     33 C28        -23.8660    18.0580   -21.6940 c3         1 V7Y      -0.103100
     34 N29        -22.5580    16.1660   -22.4470 ns         1 V7Y      -0.572900
     35 O31        -20.3240    15.9920   -22.7080 o          1 V7Y      -0.642100
     36 N34        -24.1300    13.8850   -23.5010 nd         1 V7Y      -0.689000
     37 N38        -22.5190    12.4070   -24.4160 na         1 V7Y       0.096200
     38 N39        -21.1950    12.2750   -24.5910 nd         1 V7Y      -0.669100
     39 N41        -19.3340    13.5460   -23.9980 nv         1 V7Y      -0.884800
     40 H3         -15.0300    22.4750   -13.6540 h1         1 V7Y       0.056367
     41 H4         -16.0120    23.0450   -15.0110 h1         1 V7Y       0.056367
     42 H2         -16.5020    23.4180   -13.3510 h1         1 V7Y       0.056367
     43 H5         -17.4650    21.3010   -15.9830 h4         1 V7Y       0.185000
     44 H6         -17.9630    19.0010   -12.3760 h4         1 V7Y       0.041100
     45 H8         -21.6890    14.0510   -15.5940 ha         1 V7Y       0.131000
     46 H9         -22.5530    14.1940   -17.9030 ha         1 V7Y       0.134000
     47 H11        -22.3690    20.6360   -19.8880 ha         1 V7Y       0.149000
     48 H12        -21.8070    22.6080   -21.2710 ha         1 V7Y       0.133000
     49 H14        -18.5390    20.4510   -23.0070 ha         1 V7Y       0.133000
     50 H20        -26.0800    13.2930   -23.6650 h4         1 V7Y       0.033100
     51 H21        -25.5470    11.1510   -24.8450 ha         1 V7Y       0.165000
     52 H22        -23.1120    10.6380   -25.3110 h4         1 V7Y       0.186000
     53 H7         -20.2950    15.8600   -14.6760 ha         1 V7Y       0.140000
     54 H10        -22.7560    15.4070   -20.0230 ha         1 V7Y       0.148000
     55 H13        -19.8910    22.5150   -22.8340 ha         1 V7Y       0.130000
     56 H15        -19.1120    18.4780   -21.6250 ha         1 V7Y       0.149000
     57 H1         -21.8400    18.0980   -22.3690 h1         1 V7Y       0.083700
     58 H18        -23.8280    19.0240   -21.1940 hc         1 V7Y       0.048367
     59 H16        -24.2690    18.2150   -22.6950 hc         1 V7Y       0.048367
     60 H17        -24.5490    17.4170   -21.1360 hc         1 V7Y       0.048367
     61 H19        -23.4630    15.7340   -22.5810 hn         1 V7Y       0.345500
     62 H24        -18.7700    13.0160   -24.6400 hn         1 V7Y       0.440300
     63 H23        -19.0070    14.4720   -23.7820 hn         1 V7Y       0.440300
     64 O24        -19.8310    19.2240   -18.2560 o          1 V7Y      -0.603500
@<TRIPOS>BOND
     1     1    22 1   
     2     1    40 1   
     3     1    41 1   
     4     1    42 1   
     5     2     3 2   
     6     2    22 1   
     7     2    43 1   
     8     3     4 1   
     9     3     5 1   
    10     4    23 2   
    11     4    44 1   
    12     5     6 3   
    13     6    24 1   
    14     7     8 ar  
    15     7    25 ar  
    16     7    45 1   
    17     8    26 ar  
    18     8    46 1   
    19     9    27 2   
    20     9    28 1   
    21     9    32 1   
    22    10    11 ar  
    23    10    28 1   
    24    10    30 ar  
    25    11    12 ar  
    26    11    47 1   
    27    12    29 ar  
    28    12    48 1   
    29    13    29 ar  
    30    13    30 ar  
    31    13    49 1   
    32    14    28 1   
    33    14    31 1   
    34    14    64 2   
    35    15    16 1   
    36    15    34 1   
    37    15    35 2   
    38    16    17 2   
    39    16    21 1   
    40    17    36 1   
    41    17    37 1   
    42    18    19 1   
    43    18    36 2   
    44    18    50 1   
    45    19    20 2   
    46    19    51 1   
    47    20    37 1   
    48    20    52 1   
    49    21    38 2   
    50    21    39 1   
    51    22    23 1   
    52    24    25 ar  
    53    24    31 ar  
    54    25    53 1   
    55    26    27 1   
    56    26    31 ar  
    57    27    54 1   
    58    29    55 1   
    59    30    56 1   
    60    32    33 1   
    61    32    34 1   
    62    32    57 1   
    63    33    58 1   
    64    33    59 1   
    65    33    60 1   
    66    34    61 1   
    67    37    38 1   
    68    39    62 1   
    69    39    63 1   
@<TRIPOS>SUBSTRUCTURE
     1 V7Y         1 TEMP              0 ****  ****    0 ROOT
