@<TRIPOS>MOLECULE
V7Y
   64    69     1     0     0
SMALL
No Charge or Current Charge


@<TRIPOS>ATOM
      1 C1         -16.0660    22.6510   -14.1720 c3         1 V7Y       0.073900
      2 C3         -17.5860    20.7910   -15.0370 cc         1 V7Y      -0.130000
      3 C4         -18.0560    19.6510   -14.4490 cd         1 V7Y      -0.103000
      4 C5         -17.5270    19.6300   -13.1390 cd         1 V7Y       0.267900
      5 C7         -18.9050    18.6930   -15.0590 ch         1 V7Y      -0.035000
      6 C8         -19.6360    17.9120   -15.6450 cg         1 V7Y      -0.118000
      7 C11        -21.7430    14.8850   -16.1370 ca         1 V7Y      -0.076000
      8 C12        -22.1860    15.0390   -17.4550 ca         1 V7Y      -0.128000
      9 C15        -21.9210    17.3440   -20.3960 cc         1 V7Y       0.069400
     10 C17        -20.7980    19.4940   -20.7070 ca         1 V7Y       0.027600
     11 C18        -21.4820    20.7100   -20.5160 ca         1 V7Y      -0.090500
     12 C19        -21.1120    21.8540   -21.2450 ca         1 V7Y      -0.110500
     13 C21        -19.3000    20.6030   -22.2820 ca         1 V7Y      -0.110500
     14 C23        -20.5770    18.3220   -18.5550 c          1 V7Y       0.578600
     15 C30        -21.3560    15.5270   -23.0550 c          1 V7Y       0.665300
     16 C32        -21.6100    14.2110   -23.6350 cc         1 V7Y      -0.423800
     17 C33        -22.7600    13.4970   -23.7280 cd         1 V7Y       0.430500
     18 C35        -24.8790    12.9510   -23.5300 cc         1 V7Y       0.401900
     19 C36        -24.6070    11.7050   -24.2150 cc         1 V7Y      -0.245000
     20 C37        -23.3410    11.3550   -24.6740 cd         1 V7Y      -0.016000
     21 C40        -20.6640    13.3820   -24.2520 cc         1 V7Y       0.679500
     22 N2         -16.8060    21.3870   -14.0500 na         1 V7Y       0.131800
     23 N6         -16.7640    20.6740   -12.8700 nc         1 V7Y      -0.532800
     24 C9         -20.4990    16.9800   -16.3200 ca         1 V7Y       0.113000
     25 C10        -20.9020    15.8540   -15.5750 ca         1 V7Y      -0.130000
     26 C13        -21.7910    16.1560   -18.2100 ca         1 V7Y       0.025200
     27 C14        -22.2620    16.2890   -19.5790 cd         1 V7Y      -0.264200
     28 N16        -21.1000    18.3630   -19.8770 n          1 V7Y      -0.218200
     29 C20        -20.0260    21.7980   -22.1360 ca         1 V7Y      -0.106000
     30 C22        -19.6720    19.4610   -21.5520 ca         1 V7Y      -0.090500
     31 C25        -20.9480    17.1430   -17.6660 ca         1 V7Y      -0.151600
     32 C26        -22.4470    17.4280   -21.8300 c3         1 V7Y       0.157900
     33 C28        -23.8550    18.0490   -21.8830 c3         1 V7Y      -0.103100
     34 N29        -22.4500    16.1280   -22.4990 ns         1 V7Y      -0.505900
     35 O31        -20.2600    16.0670   -23.0630 o          1 V7Y      -0.642100
     36 N34        -23.9910    13.9080   -23.2500 nd         1 V7Y      -0.689000
     37 N38        -22.3960    12.3350   -24.3920 na         1 V7Y       0.146900
     38 N39        -21.0670    12.2360   -24.7420 nd         1 V7Y      -0.669100
     39 N41        -19.3830    13.7040   -24.3620 nv         1 V7Y      -0.995200
     40 H3         -14.9970    22.4670   -14.0130 h1         1 V7Y       0.056367
     41 H4         -16.2160    23.0750   -15.1720 h1         1 V7Y       0.056367
     42 H2         -16.4300    23.3620   -13.4200 h1         1 V7Y       0.056367
     43 H5         -17.7310    21.2110   -16.0240 h4         1 V7Y       0.167000
     44 H6         -17.6820    18.8780   -12.3750 h4         1 V7Y       0.041100
     45 H8         -22.0480    14.0200   -15.5530 ha         1 V7Y       0.113000
     46 H9         -22.8370    14.2850   -17.8910 ha         1 V7Y       0.116000
     47 H11        -22.3080    20.7620   -19.8100 ha         1 V7Y       0.131000
     48 H12        -21.6580    22.7840   -21.1110 ha         1 V7Y       0.115000
     49 H14        -18.4440    20.5650   -22.9520 ha         1 V7Y       0.115000
     50 H20        -25.8780    13.1850   -23.1900 h4         1 V7Y       0.033100
     51 H21        -25.4420    11.0300   -24.3670 ha         1 V7Y       0.147000
     52 H22        -23.0450    10.4510   -25.1930 h4         1 V7Y       0.168000
     53 H7         -20.5610    15.7280   -14.5500 ha         1 V7Y       0.122000
     54 H10        -22.9150    15.5160   -19.9750 ha         1 V7Y       0.198000
     55 H13        -19.7370    22.6830   -22.6980 ha         1 V7Y       0.112000
     56 H15        -19.0970    18.5430   -21.6520 ha         1 V7Y       0.131000
     57 H1         -21.7930    18.0740   -22.4280 h1         1 V7Y       0.083700
     58 H18        -23.8490    19.0520   -21.4400 hc         1 V7Y       0.048367
     59 H16        -24.1980    18.1370   -22.9210 hc         1 V7Y       0.048367
     60 H17        -24.5740    17.4330   -21.3300 hc         1 V7Y       0.048367
     61 H19        -23.3150    15.6000   -22.5590 hn         1 V7Y       0.345500
     62 H24        -18.8750    13.2560   -25.1140 hn         1 V7Y       0.495500
     63 H23        -19.1570    14.6720   -24.1520 hn         1 V7Y       0.495500
     64 O24        -19.8520    19.2320   -18.1670 o          1 V7Y      -0.528000
@<TRIPOS>BOND
     1     1    22 1   
     2     1    40 1   
     3     1    41 1   
     4     1    42 1   
     5     2     3 2   
     6     2    22 1   
     7     2    43 1   
     8     3     4 1   
     9     3     5 1   
    10     4    23 2   
    11     4    44 1   
    12     5     6 3   
    13     6    24 1   
    14     7     8 ar  
    15     7    25 ar  
    16     7    45 1   
    17     8    26 ar  
    18     8    46 1   
    19     9    27 2   
    20     9    28 1   
    21     9    32 1   
    22    10    11 ar  
    23    10    28 1   
    24    10    30 ar  
    25    11    12 ar  
    26    11    47 1   
    27    12    29 ar  
    28    12    48 1   
    29    13    29 ar  
    30    13    30 ar  
    31    13    49 1   
    32    14    28 1   
    33    14    31 1   
    34    14    64 2   
    35    15    16 1   
    36    15    34 1   
    37    15    35 2   
    38    16    17 2   
    39    16    21 1   
    40    17    36 1   
    41    17    37 1   
    42    18    19 1   
    43    18    36 2   
    44    18    50 1   
    45    19    20 2   
    46    19    51 1   
    47    20    37 1   
    48    20    52 1   
    49    21    38 2   
    50    21    39 1   
    51    22    23 1   
    52    24    25 ar  
    53    24    31 ar  
    54    25    53 1   
    55    26    27 1   
    56    26    31 ar  
    57    27    54 1   
    58    29    55 1   
    59    30    56 1   
    60    32    33 1   
    61    32    34 1   
    62    32    57 1   
    63    33    58 1   
    64    33    59 1   
    65    33    60 1   
    66    34    61 1   
    67    37    38 1   
    68    39    62 1   
    69    39    63 1   
@<TRIPOS>SUBSTRUCTURE
     1 V7Y         1 TEMP              0 ****  ****    0 ROOT
