@<TRIPOS>MOLECULE
V80
   45    46     1     0     0
SMALL
abcg2


@<TRIPOS>ATOM
      1 C02        116.8440   244.6310   359.4620 ca         1 V80       0.373900
      2 C04        116.1860   246.5220   360.5590 ca         1 V80       0.169300
      3 C05        116.5840   247.2850   359.4680 ca         1 V80      -0.271000
      4 C06        117.1320   246.6160   358.3760 ca         1 V80       0.163300
      5 C07        115.5940   247.1450   361.7870 c3         1 V80      -0.149400
      6 C08        117.6770   247.3690   357.1980 c3         1 V80      -0.129700
      7 C09        119.1620   247.7660   357.3940 c3         1 V80      -0.021100
      8 C11        120.3660   245.9980   358.7270 ca         1 V80       0.136000
      9 C12        121.1620   244.8670   358.8140 ca         1 V80       0.131000
     10 C13        121.7120   244.2920   357.6890 ca         1 V80      -0.124000
     11 C14        121.4610   244.8630   356.4390 ca         1 V80      -0.045300
     12 C15        120.6480   245.9900   356.3700 ca         1 V80      -0.087000
     13 C16        120.0810   246.5790   357.5030 ca         1 V80      -0.079300
     14 C18        123.6150   244.4360   355.1680 c3         1 V80       0.167800
     15 C20        123.7070   246.6250   354.1320 c3         1 V80       0.150100
     16 C21        125.5110   245.8630   355.5120 c3         1 V80       0.150100
     17 F11        119.8560   246.5120   359.8700 f          1 V80      -0.168000
     18 F12        121.3860   244.3270   360.0340 f          1 V80      -0.171000
     19 N01        117.2490   245.2880   358.3610 nb         1 V80      -0.247000
     20 N02        116.9460   243.2740   359.4410 nv         1 V80      -1.054900
     21 N03        116.3210   245.1910   360.5620 nb         1 V80      -0.250000
     22 N19        124.0740   245.8160   355.2860 n3         1 V80      -0.714600
     23 H1         116.4870   248.3610   359.4720 ha         1 V80       0.128000
     24 H2         116.1960   246.8900   362.6620 hc         1 V80       0.054367
     25 H3         115.5400   248.2290   361.6970 hc         1 V80       0.054367
     26 H4         114.5900   246.7520   361.9600 hc         1 V80       0.054367
     27 H5         117.1000   248.2820   357.0470 hc         1 V80       0.061700
     28 H6         117.5870   246.7510   356.3040 hc         1 V80       0.061700
     29 H7         119.4640   248.3670   356.5350 hc         1 V80       0.056700
     30 H8         119.2470   248.3950   358.2810 hc         1 V80       0.056700
     31 H9         122.3320   243.4110   357.7960 ha         1 V80       0.129000
     32 H10        120.4440   246.4360   355.4040 ha         1 V80       0.114000
     33 H11        121.6410   244.7330   354.3170 hc         1 V80       0.050200
     34 H12        121.8760   243.2090   355.1450 hc         1 V80       0.050200
     35 H13        123.9960   243.9700   354.2410 h1         1 V80       0.032700
     36 H14        124.0430   243.8770   356.0030 h1         1 V80       0.032700
     37 H15        122.6240   246.6720   354.0230 h1         1 V80       0.030700
     38 H16        124.0770   247.6420   354.2690 h1         1 V80       0.030700
     39 H17        124.1310   246.2280   353.1930 h1         1 V80       0.030700
     40 H18        125.7630   245.3000   356.4130 h1         1 V80       0.030700
     41 H19        126.0860   245.4380   354.6710 h1         1 V80       0.030700
     42 H20        125.8300   246.8970   355.6490 h1         1 V80       0.030700
     43 H21        117.5480   242.8650   358.7450 hn         1 V80       0.488500
     44 H22        116.8700   242.7890   360.3200 hn         1 V80       0.488500
     45 C17        122.0910   244.2790   355.2010 c3         1 V80      -0.028100
@<TRIPOS>BOND
     1     1    19 ar  
     2     1    20 1   
     3     1    21 ar  
     4     2     3 ar  
     5     2     5 1   
     6     2    21 ar  
     7     3     4 ar  
     8     3    23 1   
     9     4     6 1   
    10     4    19 ar  
    11     5    24 1   
    12     5    25 1   
    13     5    26 1   
    14     6     7 1   
    15     6    27 1   
    16     6    28 1   
    17     7    13 1   
    18     7    29 1   
    19     7    30 1   
    20     8     9 ar  
    21     8    13 ar  
    22     8    17 1   
    23     9    10 ar  
    24     9    18 1   
    25    10    11 ar  
    26    10    31 1   
    27    11    12 ar  
    28    11    45 1   
    29    12    13 ar  
    30    12    32 1   
    31    14    22 1   
    32    14    35 1   
    33    14    36 1   
    34    14    45 1   
    35    15    22 1   
    36    15    37 1   
    37    15    38 1   
    38    15    39 1   
    39    16    22 1   
    40    16    40 1   
    41    16    41 1   
    42    16    42 1   
    43    20    43 1   
    44    20    44 1   
    45    33    45 1   
    46    34    45 1   
@<TRIPOS>SUBSTRUCTURE
     1 V80         1 TEMP              0 ****  ****    0 ROOT
