@<TRIPOS>MOLECULE
V80
   45    46     1     0     0
SMALL
No Charge or Current Charge


@<TRIPOS>ATOM
      1 C02        116.5790   244.5650   359.1100 ca         1 V80       0.373900
      2 C04        116.2430   246.3570   360.4850 ca         1 V80       0.169300
      3 C05        116.7420   247.2020   359.4790 ca         1 V80      -0.271000
      4 C06        117.1550   246.6100   358.2720 ca         1 V80       0.163300
      5 C07        115.7880   246.9000   361.8260 c3         1 V80      -0.149400
      6 C08        117.7390   247.4420   357.1390 c3         1 V80      -0.129700
      7 C09        119.1830   247.9080   357.4290 c3         1 V80      -0.021100
      8 C11        120.4960   246.3190   358.9580 ca         1 V80       0.136000
      9 C12        121.3600   245.2220   359.1340 ca         1 V80       0.131000
     10 C13        121.8710   244.5360   358.0220 ca         1 V80      -0.124000
     11 C14        121.5230   244.9430   356.7200 ca         1 V80      -0.045300
     12 C15        120.6530   246.0390   356.5470 ca         1 V80      -0.087000
     13 C16        120.1360   246.7360   357.6580 ca         1 V80      -0.079300
     14 C18        123.6050   244.3700   355.3290 c3         1 V80       0.167800
     15 C20        123.5350   246.4900   354.0260 c3         1 V80       0.150100
     16 C21        125.5580   245.8680   355.2680 c3         1 V80       0.150100
     17 F11        120.0090   246.9660   360.0450 f          1 V80      -0.168000
     18 F12        121.7040   244.8180   360.3790 f          1 V80      -0.171000
     19 N01        117.0710   245.2770   358.0860 nb         1 V80      -0.247000
     20 N02        116.4960   243.2240   358.9240 nv         1 V80      -1.054900
     21 N03        116.1630   245.0240   360.3000 nb         1 V80      -0.250000
     22 N19        124.0830   245.7740   355.2020 n3         1 V80      -0.714600
     23 H1         116.8180   248.2750   359.6320 ha         1 V80       0.128000
     24 H2         116.5930   246.8300   362.5670 hc         1 V80       0.054367
     25 H3         115.4940   247.9540   361.7490 hc         1 V80       0.054367
     26 H4         114.9250   246.3440   362.2110 hc         1 V80       0.054367
     27 H5         117.1090   248.3230   356.9690 hc         1 V80       0.061700
     28 H6         117.7280   246.8740   356.2000 hc         1 V80       0.061700
     29 H7         119.5340   248.5110   356.5820 hc         1 V80       0.056700
     30 H8         119.1780   248.5860   358.2910 hc         1 V80       0.056700
     31 H9         122.5370   243.6910   358.1740 ha         1 V80       0.129000
     32 H10        120.3770   246.3520   355.5430 ha         1 V80       0.114000
     33 H11        121.5620   244.5050   354.5920 hc         1 V80       0.050200
     34 H12        121.8660   243.1270   355.6170 hc         1 V80       0.050200
     35 H13        123.9140   243.7940   354.4460 h1         1 V80       0.032700
     36 H14        124.0920   243.9010   356.1950 h1         1 V80       0.032700
     37 H15        122.4400   246.5470   354.0680 h1         1 V80       0.030700
     38 H16        123.9150   247.5200   353.9890 h1         1 V80       0.030700
     39 H17        123.8210   245.9860   353.0930 h1         1 V80       0.030700
     40 H18        125.9360   245.4090   356.1920 h1         1 V80       0.030700
     41 H19        126.0220   245.3560   354.4140 h1         1 V80       0.030700
     42 H20        125.8820   246.9170   355.2580 h1         1 V80       0.030700
     43 H21        116.9910   242.8120   358.1370 hn         1 V80       0.488500
     44 H22        116.3360   242.6260   359.7310 hn         1 V80       0.488500
     45 C17        122.0770   244.1970   355.5100 c3         1 V80      -0.028100
@<TRIPOS>BOND
     1     1    19 ar  
     2     1    20 1   
     3     1    21 ar  
     4     2     3 ar  
     5     2     5 1   
     6     2    21 ar  
     7     3     4 ar  
     8     3    23 1   
     9     4     6 1   
    10     4    19 ar  
    11     5    24 1   
    12     5    25 1   
    13     5    26 1   
    14     6     7 1   
    15     6    27 1   
    16     6    28 1   
    17     7    13 1   
    18     7    29 1   
    19     7    30 1   
    20     8     9 ar  
    21     8    13 ar  
    22     8    17 1   
    23     9    10 ar  
    24     9    18 1   
    25    10    11 ar  
    26    10    31 1   
    27    11    12 ar  
    28    11    45 1   
    29    12    13 ar  
    30    12    32 1   
    31    14    22 1   
    32    14    35 1   
    33    14    36 1   
    34    14    45 1   
    35    15    22 1   
    36    15    37 1   
    37    15    38 1   
    38    15    39 1   
    39    16    22 1   
    40    16    40 1   
    41    16    41 1   
    42    16    42 1   
    43    20    43 1   
    44    20    44 1   
    45    33    45 1   
    46    34    45 1   
@<TRIPOS>SUBSTRUCTURE
     1 V80         1 TEMP              0 ****  ****    0 ROOT
