@<TRIPOS>MOLECULE
V81
   57    62     1     0     0
SMALL
abcg2


@<TRIPOS>ATOM
      1 C2         -25.7500    14.1930   -19.5690 c3         1 V81       0.352300
      2 C5         -25.4160    13.3570   -20.7760 ca         1 V81      -0.134300
      3 C6         -24.1320    13.3930   -21.2950 ca         1 V81      -0.039000
      4 C7         -23.7670    12.6240   -22.4120 ca         1 V81      -0.132500
      5 C8         -24.7250    11.8110   -23.0210 ca         1 V81      -0.057000
      6 C12        -29.5890    10.8560   -22.0870 c3         1 V81       0.151700
      7 C15        -29.5950     9.3550   -21.9030 cx         1 V81      -0.154700
      8 C16        -30.7340     8.7210   -21.1570 cx         1 V81      -0.122400
      9 C17        -29.3610     8.7810   -20.5360 cx         1 V81      -0.122400
     10 C18        -27.8020    12.2630   -21.0860 c          1 V81       0.574600
     11 C21        -22.3760    12.6970   -22.9150 cc         1 V81       0.441500
     12 C23        -20.5630    11.8220   -24.2300 cd         1 V81      -0.018000
     13 C31        -19.4300    15.8910   -21.7990 cc         1 V81      -0.127800
     14 C32        -20.5790    16.5090   -21.3140 cd         1 V81      -0.144000
     15 C36        -18.3790    16.6410   -21.2170 cc         1 V81       0.242900
     16 F1         -26.7700    15.0470   -19.7980 f          1 V81      -0.104667
     17 F3         -26.0980    13.4360   -18.5030 f          1 V81      -0.104667
     18 F4         -24.7060    14.9500   -19.1690 f          1 V81      -0.104667
     19 C9         -26.0060    11.7800   -22.5010 ca         1 V81      -0.099300
     20 C10        -27.1900    10.9990   -22.9790 c5         1 V81       0.144300
     21 N11        -28.2280    11.3880   -22.0380 n          1 V81      -0.416800
     22 C14        -30.3020    11.2820   -23.3690 c3         1 V81      -0.101100
     23 O19        -28.4830    12.7200   -20.1730 o          1 V81      -0.525000
     24 C20        -26.3650    12.5320   -21.3900 ca         1 V81      -0.092600
     25 C22        -21.8570    11.7150   -23.7990 cc         1 V81      -0.235000
     26 N24        -19.8290    12.8640   -23.8010 na         1 V81       0.116900
     27 N25        -18.5470    13.1370   -24.1210 nd         1 V81      -0.636100
     28 C26        -18.2640    14.2620   -23.4400 cc         1 V81       0.602500
     29 N27        -17.0020    14.7970   -23.5080 nv         1 V81      -0.978200
     30 C28        -19.3570    14.7340   -22.6690 cc         1 V81      -0.196800
     31 C29        -20.3740    13.8110   -22.9230 cd         1 V81       0.399500
     32 N30        -21.6360    13.7140   -22.4950 nd         1 V81      -0.661000
     33 N33        -20.1830    17.5270   -20.5200 na         1 V81       0.120800
     34 N35        -18.8440    17.6270   -20.4500 nd         1 V81      -0.527800
     35 H2         -23.3820    14.0200   -20.8390 ha         1 V81       0.158000
     36 H3         -24.4870    11.2220   -23.8960 ha         1 V81       0.125000
     37 H1         -30.0930    11.3090   -21.2330 h1         1 V81       0.086700
     38 H9         -29.1980     8.7920   -22.7410 hc         1 V81       0.074700
     39 H11        -31.4960     9.3780   -20.7580 hc         1 V81       0.075950
     40 H10        -31.0990     7.7630   -21.5020 hc         1 V81       0.075950
     41 H12        -28.7940     7.8630   -20.4560 hc         1 V81       0.075950
     42 H13        -29.2070     9.4800   -19.7240 hc         1 V81       0.075950
     43 H15        -20.0760    11.1220   -24.8940 h4         1 V81       0.163000
     44 H18        -21.6190    16.2890   -21.4760 h4         1 V81       0.164000
     45 H20        -20.7650    18.4740   -18.7530 h1         1 V81       0.057367
     46 H19        -20.9020    19.4710   -20.2200 h1         1 V81       0.057367
     47 H21        -22.0630    18.1570   -19.9250 h1         1 V81       0.057367
     48 H22        -17.3140    16.4920   -21.3030 h4         1 V81       0.037100
     49 H4         -27.4610    11.2590   -24.0060 h1         1 V81       0.065700
     50 H5         -27.0070     9.9210   -22.9430 h1         1 V81       0.065700
     51 H8         -30.2910    12.3680   -23.4750 hc         1 V81       0.043700
     52 H7         -29.8300    10.8420   -24.2500 hc         1 V81       0.043700
     53 H6         -31.3390    10.9460   -23.3390 hc         1 V81       0.043700
     54 H14        -22.4440    10.8730   -24.1270 ha         1 V81       0.138000
     55 H17        -16.4490    14.4670   -24.2870 hn         1 V81       0.463500
     56 H16        -16.9460    15.7990   -23.3920 hn         1 V81       0.463500
     57 C34        -21.0280    18.4680   -19.8100 c3         1 V81       0.076900
@<TRIPOS>BOND
     1     1     2 1   
     2     1    16 1   
     3     1    17 1   
     4     1    18 1   
     5     2     3 ar  
     6     2    24 ar  
     7     3     4 ar  
     8     3    35 1   
     9     4     5 ar  
    10     4    11 1   
    11     5    19 ar  
    12     5    36 1   
    13     6     7 1   
    14     6    21 1   
    15     6    22 1   
    16     6    37 1   
    17     7     8 1   
    18     7     9 1   
    19     7    38 1   
    20     8     9 1   
    21     8    39 1   
    22     8    40 1   
    23     9    41 1   
    24     9    42 1   
    25    10    21 1   
    26    10    23 2   
    27    10    24 1   
    28    11    25 1   
    29    11    32 2   
    30    12    25 2   
    31    12    26 1   
    32    12    43 1   
    33    13    14 2   
    34    13    15 1   
    35    13    30 1   
    36    14    33 1   
    37    14    44 1   
    38    15    34 2   
    39    15    48 1   
    40    19    20 1   
    41    19    24 ar  
    42    20    21 1   
    43    20    49 1   
    44    20    50 1   
    45    22    51 1   
    46    22    52 1   
    47    22    53 1   
    48    25    54 1   
    49    26    27 1   
    50    26    31 1   
    51    27    28 2   
    52    28    29 1   
    53    28    30 1   
    54    29    55 1   
    55    29    56 1   
    56    30    31 2   
    57    31    32 1   
    58    33    34 1   
    59    33    57 1   
    60    45    57 1   
    61    46    57 1   
    62    47    57 1   
@<TRIPOS>SUBSTRUCTURE
     1 V81         1 TEMP              0 ****  ****    0 ROOT
