@<TRIPOS>MOLECULE
V81
   57    62     1     0     0
SMALL
No Charge or Current Charge


@<TRIPOS>ATOM
      1 C2         -26.0020    14.6100   -19.8060 c3         1 V81       0.352300
      2 C5         -25.5480    13.6200   -20.8940 ca         1 V81      -0.134300
      3 C6         -24.2150    13.6340   -21.3790 ca         1 V81      -0.039000
      4 C7         -23.7530    12.7290   -22.3830 ca         1 V81      -0.132500
      5 C8         -24.6910    11.8010   -22.9100 ca         1 V81      -0.057000
      6 C12        -29.6100    10.7910   -22.0360 c3         1 V81       0.151700
      7 C15        -29.6090     9.2690   -21.9200 cx         1 V81      -0.154700
      8 C16        -30.7170     8.5370   -21.1970 cx         1 V81      -0.122400
      9 C17        -29.3290     8.5930   -20.5980 cx         1 V81      -0.122400
     10 C18        -27.8640    12.3870   -21.1790 c          1 V81       0.574600
     11 C21        -22.3420    12.7970   -22.8650 cc         1 V81       0.441500
     12 C23        -20.5170    11.8170   -24.2980 cd         1 V81      -0.018000
     13 C31        -19.3930    15.8560   -21.8040 cc         1 V81      -0.127800
     14 C32        -20.4780    16.2920   -21.0970 cd         1 V81      -0.144000
     15 C36        -18.3500    16.7530   -21.4970 cc         1 V81       0.242900
     16 F1         -27.0100    15.4010   -20.2390 f          1 V81      -0.104667
     17 F3         -26.4380    13.9700   -18.6970 f          1 V81      -0.104667
     18 F4         -25.0160    15.4420   -19.4000 f          1 V81      -0.104667
     19 C9         -26.0080    11.7850   -22.4320 ca         1 V81      -0.099300
     20 C10        -27.1200    10.8540   -22.8940 c5         1 V81       0.144300
     21 N11        -28.2370    11.3320   -22.0260 n          1 V81      -0.416800
     22 C14        -30.3920    11.2660   -23.2760 c3         1 V81      -0.101100
     23 O19        -28.6010    12.9540   -20.3830 o          1 V81      -0.525000
     24 C20        -26.4270    12.6660   -21.4510 ca         1 V81      -0.092600
     25 C22        -21.8140    11.8010   -23.7960 cc         1 V81      -0.235000
     26 N24        -19.7780    12.8860   -23.8220 na         1 V81       0.116900
     27 N25        -18.4660    13.1120   -24.1730 nd         1 V81      -0.636100
     28 C26        -18.2640    14.1990   -23.4670 cc         1 V81       0.602500
     29 N27        -17.0600    14.7740   -23.5610 nv         1 V81      -0.978200
     30 C28        -19.3480    14.6930   -22.6800 cc         1 V81      -0.196800
     31 C29        -20.3450    13.7920   -22.9450 cd         1 V81       0.399500
     32 N30        -21.6170    13.8270   -22.4110 nd         1 V81      -0.661000
     33 N33        -20.0280    17.4250   -20.4120 na         1 V81       0.120800
     34 N35        -18.6940    17.7130   -20.6630 nd         1 V81      -0.527800
     35 H2         -23.5240    14.3590   -20.9570 ha         1 V81       0.158000
     36 H3         -24.4390    11.0950   -23.6930 ha         1 V81       0.125000
     37 H1         -30.1410    11.1830   -21.1570 h1         1 V81       0.086700
     38 H9         -29.2060     8.7830   -22.8060 hc         1 V81       0.074700
     39 H11        -31.4970     9.1270   -20.7220 hc         1 V81       0.075950
     40 H10        -31.0530     7.5900   -21.6120 hc         1 V81       0.075950
     41 H12        -28.7330     7.6840   -20.6100 hc         1 V81       0.075950
     42 H13        -29.1790     9.2230   -19.7240 hc         1 V81       0.075950
     43 H15        -20.0620    11.1100   -24.9810 h4         1 V81       0.163000
     44 H18        -21.4930    15.9250   -21.0160 h4         1 V81       0.164000
     45 H20        -20.3520    18.2880   -18.5180 h1         1 V81       0.057367
     46 H19        -20.8750    19.2870   -19.9090 h1         1 V81       0.057367
     47 H21        -21.8370    17.8620   -19.4180 h1         1 V81       0.057367
     48 H22        -17.3300    16.7380   -21.8530 h4         1 V81       0.037100
     49 H4         -27.3440    10.9860   -23.9600 h1         1 V81       0.065700
     50 H5         -26.8700     9.8020   -22.7010 h1         1 V81       0.065700
     51 H8         -30.4160    12.3620   -23.3160 hc         1 V81       0.043700
     52 H7         -29.9270    10.8970   -24.1970 hc         1 V81       0.043700
     53 H6         -31.4260    10.9030   -23.2410 hc         1 V81       0.043700
     54 H14        -22.4430    10.9840   -24.1140 ha         1 V81       0.138000
     55 H17        -16.4700    14.4070   -24.2980 hn         1 V81       0.463500
     56 H16        -17.0100    15.7720   -23.4100 hn         1 V81       0.463500
     57 C34        -20.8230    18.2680   -19.5080 c3         1 V81       0.076900
@<TRIPOS>BOND
     1     1     2 1   
     2     1    16 1   
     3     1    17 1   
     4     1    18 1   
     5     2     3 ar  
     6     2    24 ar  
     7     3     4 ar  
     8     3    35 1   
     9     4     5 ar  
    10     4    11 1   
    11     5    19 ar  
    12     5    36 1   
    13     6     7 1   
    14     6    21 1   
    15     6    22 1   
    16     6    37 1   
    17     7     8 1   
    18     7     9 1   
    19     7    38 1   
    20     8     9 1   
    21     8    39 1   
    22     8    40 1   
    23     9    41 1   
    24     9    42 1   
    25    10    21 1   
    26    10    23 2   
    27    10    24 1   
    28    11    25 1   
    29    11    32 2   
    30    12    25 2   
    31    12    26 1   
    32    12    43 1   
    33    13    14 2   
    34    13    15 1   
    35    13    30 1   
    36    14    33 1   
    37    14    44 1   
    38    15    34 2   
    39    15    48 1   
    40    19    20 1   
    41    19    24 ar  
    42    20    21 1   
    43    20    49 1   
    44    20    50 1   
    45    22    51 1   
    46    22    52 1   
    47    22    53 1   
    48    25    54 1   
    49    26    27 1   
    50    26    31 1   
    51    27    28 2   
    52    28    29 1   
    53    28    30 1   
    54    29    55 1   
    55    29    56 1   
    56    30    31 2   
    57    31    32 1   
    58    33    34 1   
    59    33    57 1   
    60    45    57 1   
    61    46    57 1   
    62    47    57 1   
@<TRIPOS>SUBSTRUCTURE
     1 V81         1 TEMP              0 ****  ****    0 ROOT
