@<TRIPOS>MOLECULE
V82
  135   141     1     0     0
SMALL
abcg2


@<TRIPOS>ATOM
      1 C4        -103.9000    36.8390   136.0380 ca         1 V82       0.098100
      2 C14       -105.2300    32.7210   141.5870 cc         1 V82      -0.166000
      3 C5        -104.1110    38.2070   136.0200 ca         1 V82      -0.103000
      4 C6        -105.2890    38.7460   136.5240 ca         1 V82      -0.123000
      5 C11        -99.2760    42.9030   133.6620 c5         1 V82       0.128300
      6 C7        -106.2660    37.9140   137.0360 ca         1 V82      -0.071000
      7 C8         -98.3240    41.3450   135.0280 c          1 V82       0.707100
      8 C10       -106.4470    32.1760   141.2820 cd         1 V82       0.158300
      9 C12       -100.2310    42.6530   134.8360 c5         1 V82       0.080000
     10 N1         -99.5910    41.5240   135.4720 n          1 V82      -0.269400
     11 C3        -104.8840    35.9850   136.5610 ca         1 V82       0.087100
     12 OAC        -99.5070    32.7330   138.7780 o          1 V82      -0.570100
     13 CBI       -100.0370    33.6780   138.2240 c          1 V82       0.619700
     14 CBT        -99.2580    34.8400   137.7040 ca         1 V82      -0.224600
     15 CBQ        -99.3080    35.1710   136.3510 ca         1 V82       0.087100
     16 OAK       -100.0100    34.5090   135.4130 oh         1 V82      -0.583100
     17 CBN        -98.5500    36.2580   135.8820 ca         1 V82       0.117100
     18 OAH        -98.5790    36.6290   134.5890 oh         1 V82      -0.530100
     19 CAR        -97.7570    36.9740   136.7630 ca         1 V82      -0.104000
     20 CAO        -97.6960    36.6230   138.1070 ca         1 V82      -0.113000
     21 CAU        -98.4330    35.5530   138.5750 ca         1 V82      -0.085000
     22 NBC       -101.3720    33.7740   138.0220 ns         1 V82      -0.511900
     23 CAY       -102.2610    32.6600   138.1070 c3         1 V82       0.013000
     24 CBH       -102.5090    32.0530   136.7280 c          1 V82       0.593100
     25 OAB       -101.7900    32.3480   135.7710 o          1 V82      -0.673100
     26 CB        -103.9350    30.4370   135.5140 c3         1 V82       0.088000
     27 CA        -105.1050    31.0950   134.7780 c3         1 V82       0.001700
     28 N         -104.7300    32.3840   134.2520 ns         1 V82      -0.521900
     29 CBJ       -104.1990    32.5300   133.0190 c          1 V82       0.614700
     30 CBU       -103.5590    33.8620   132.7820 ca         1 V82      -0.179600
     31 CBR       -102.1690    33.9090   132.7710 ca         1 V82       0.066100
     32 OAL       -101.3990    32.8160   133.0180 oh         1 V82      -0.569100
     33 CBO       -101.5230    35.1080   132.4590 ca         1 V82       0.131100
     34 OAI       -100.1750    35.1790   132.4250 oh         1 V82      -0.524100
     35 CAS       -102.2710    36.2440   132.1810 ca         1 V82      -0.107000
     36 CAP       -103.6560    36.1920   132.2270 ca         1 V82      -0.099000
     37 CAV       -104.3070    35.0060   132.5320 ca         1 V82      -0.112000
     38 OAD       -104.2060    31.6590   132.1690 o          1 V82      -0.561100
     39 C         -106.3400    31.1910   135.6730 c          1 V82       0.600100
     40 CBA       -108.3840    32.4670   136.1270 c3         1 V82       0.093000
     41 CBX       -108.1030    33.4400   137.2840 c3         1 V82       0.010700
     42 NBG       -107.5450    34.6620   136.7750 ns         1 V82      -0.502900
     43 OAE       -107.5460    35.7650   138.7460 o          1 V82      -0.547100
     44 CBL       -107.1200    32.8250   138.2850 c          1 V82       0.609100
     45 OAF       -105.9160    33.0870   138.2440 o          1 V82      -0.678100
     46 NBB       -107.6420    31.9890   139.1710 ns         1 V82      -0.449900
     47 CAX       -106.8400    31.2860   140.1530 c3         1 V82       0.097700
     48 O1        -106.5080    30.4130   136.5960 o          1 V82      -0.607100
     49 C2        -106.0790    36.5320   137.0310 ca         1 V82      -0.205600
     50 O8        -104.5760    34.6700   136.5680 oh         1 V82      -0.628100
     51 O9        -102.7310    36.3530   135.5760 oh         1 V82      -0.530100
     52 N11       -107.3450    32.6330   142.1860 nd         1 V82      -0.350000
     53 N12       -106.7570    33.4230   143.0070 nc         1 V82      -0.164800
     54 N13       -105.4780    33.4840   142.6670 na         1 V82       0.085800
     55 O21       -103.8570    35.1740   142.5400 os         1 V82      -0.468100
     56 C22       -104.5530    36.1440   141.8990 c          1 V82       0.637100
     57 O23       -105.7220    36.3720   142.1260 o          1 V82      -0.500000
     58 N24       -103.7770    36.7800   141.0100 n          1 V82      -0.400800
     59 C25       -102.3790    36.4350   140.7790 c6         1 V82       0.099000
     60 C26       -101.9040    37.0640   139.4870 c6         1 V82       0.194800
     61 N27       -102.0390    38.5030   139.5280 nh         1 V82      -0.800400
     62 C28       -103.3050    38.9890   140.0830 c6         1 V82       0.194800
     63 C29       -104.3190    37.8650   140.2120 c6         1 V82       0.099000
     64 C30       -101.4200    39.2280   138.5240 ca         1 V82       0.265000
     65 C31       -100.8950    38.6360   137.3710 ca         1 V82      -0.137000
     66 C32       -100.2960    39.3830   136.3700 ca         1 V82      -0.082000
     67 C33       -100.1790    40.7580   136.4950 ca         1 V82      -0.042000
     68 C34       -100.6590    41.3770   137.6450 ca         1 V82      -0.142000
     69 C35       -101.2480    40.6140   138.6260 ca         1 V82       0.131000
     70 F36       -101.6440    41.2320   139.7540 f          1 V82      -0.179000
     71 O24        -98.0750    42.2240   134.0440 os         1 V82      -0.416100
     72 C17        -99.7680    42.3510   132.3300 c3         1 V82       0.097000
     73 N23       -100.0560    40.9400   132.3710 ns         1 V82      -0.524900
     74 C24        -99.2950    39.9240   131.9030 c          1 V82       0.611100
     75 C27        -98.0120    40.2830   131.1960 c3         1 V82      -0.179100
     76 O36        -99.6530    38.7620   132.0290 o          1 V82      -0.591100
     77 C1        -104.5670    34.3300   143.4020 c3         1 V82       0.328600
     78 H1        -104.2590    32.6280   141.1300 h4         1 V82       0.170000
     79 H2        -103.3390    38.8520   135.6180 ha         1 V82       0.137000
     80 H3        -105.4370    39.8180   136.5110 ha         1 V82       0.123000
     81 H4         -99.0480    43.9620   133.5450 h1         1 V82       0.087700
     82 H5        -107.1880    38.3240   137.4280 ha         1 V82       0.132000
     83 H6        -100.2920    43.5160   135.5040 h1         1 V82       0.058200
     84 H7        -101.2420    42.4040   134.5100 h1         1 V82       0.058200
     85 H8        -100.5600    33.7770   135.7510 ho         1 V82       0.508000
     86 H9         -99.2110    36.1060   134.0750 ho         1 V82       0.499000
     87 H10        -97.1970    37.8220   136.3900 ha         1 V82       0.150000
     88 H11        -97.0710    37.1920   138.7820 ha         1 V82       0.124000
     89 H12        -98.3960    35.2740   139.6200 ha         1 V82       0.121000
     90 H13       -101.7420    34.6270   137.6330 hn         1 V82       0.324500
     91 H14       -103.2050    32.9590   138.5650 h1         1 V82       0.087200
     92 H15       -101.8290    31.8940   138.7520 h1         1 V82       0.087200
     93 H16       -104.0500    31.0430   137.5220 hn         1 V82       0.335500
     94 H17       -104.2110    29.4340   135.8340 h1         1 V82       0.081700
     95 H18       -103.0980    30.3370   134.8250 h1         1 V82       0.081700
     96 H19       -105.3720    30.4500   133.9350 h1         1 V82       0.114700
     97 H20       -104.5970    33.1450   134.9050 hn         1 V82       0.331500
     98 H21       -101.5990    32.4520   133.9000 ho         1 V82       0.497000
     99 H22        -99.8050    34.3060   132.6200 ho         1 V82       0.488000
    100 H23       -101.7600    37.1720   131.9580 ha         1 V82       0.152000
    101 H24       -104.2300    37.0860   132.0240 ha         1 V82       0.117000
    102 H25       -105.3890    34.9630   132.5590 ha         1 V82       0.110000
    103 H26       -107.0250    32.7120   134.5240 hn         1 V82       0.334500
    104 H27       -109.1200    32.9250   135.4660 h1         1 V82       0.074200
    105 H28       -108.8270    31.5540   136.5210 h1         1 V82       0.074200
    106 H29       -109.0570    33.6270   137.7850 h1         1 V82       0.093700
    107 H30       -107.1750    34.6590   135.8370 hn         1 V82       0.317500
    108 H31       -108.6400    31.8460   139.1840 hn         1 V82       0.331500
    109 H32       -107.4370    30.4520   140.5170 h1         1 V82       0.067200
    110 H33       -105.9550    30.8670   139.6740 h1         1 V82       0.067200
    111 H34       -105.1440    34.1210   137.1670 ho         1 V82       0.532000
    112 H35       -102.7840    35.3990   135.4440 ho         1 V82       0.480000
    113 H36       -102.2550    35.3560   140.6880 h1         1 V82       0.066200
    114 H37       -101.7520    36.7770   141.6070 h1         1 V82       0.066200
    115 H38       -102.4450    36.6140   138.6430 h1         1 V82       0.055950
    116 H39       -100.8510    36.8010   139.3660 h1         1 V82       0.055950
    117 H40       -103.1550    39.4490   141.0630 h1         1 V82       0.055950
    118 H41       -103.7480    39.7420   139.4280 h1         1 V82       0.055950
    119 H42       -105.2130    38.2600   140.6890 h1         1 V82       0.066200
    120 H43       -104.6110    37.5020   139.2240 h1         1 V82       0.066200
    121 H44       -100.9800    37.5690   137.2270 ha         1 V82       0.131000
    122 H45        -99.9370    38.8850   135.4790 ha         1 V82       0.151000
    123 H46       -100.5500    42.4440   137.7940 ha         1 V82       0.132000
    124 H47        -99.0310    42.5620   131.5560 h1         1 V82       0.061200
    125 H48       -100.6730    42.8960   132.0530 h1         1 V82       0.061200
    126 H49       -100.9310    40.6600   132.7920 hn         1 V82       0.310500
    127 H50        -97.4900    39.3700   130.9200 hc         1 V82       0.065367
    128 H51        -98.2130    40.8510   130.2860 hc         1 V82       0.065367
    129 H52        -97.3540    40.8880   131.8180 hc         1 V82       0.065367
    130 H53       -103.8160    33.7210   143.8980 h2         1 V82       0.096200
    131 H54       -105.1560    34.8660   144.1460 h2         1 V82       0.096200
    132 CBK       -107.1250    35.6410   137.6090 c          1 V82       0.608700
    133 NBE       -107.2090    32.1620   135.3490 ns         1 V82      -0.508900
    134 O13        -97.4990    40.5580   135.4160 o          1 V82      -0.509000
    135 NBD       -103.5190    31.1900   136.6760 ns         1 V82      -0.482900
@<TRIPOS>BOND
     1     1     3 ar  
     2     1    11 ar  
     3     1    51 1   
     4     2     8 2   
     5     2    54 1   
     6     2    78 1   
     7     3     4 ar  
     8     3    79 1   
     9     4     6 ar  
    10     4    80 1   
    11     5     9 1   
    12     5    71 1   
    13     5    72 1   
    14     5    81 1   
    15     6    49 ar  
    16     6    82 1   
    17     7    10 1   
    18     7    71 1   
    19     7   134 2   
    20     8    47 1   
    21     8    52 1   
    22     9    10 1   
    23     9    83 1   
    24     9    84 1   
    25    10    67 1   
    26    11    49 ar  
    27    11    50 1   
    28    12    13 2   
    29    13    14 1   
    30    13    22 1   
    31    14    15 ar  
    32    14    21 ar  
    33    15    16 1   
    34    15    17 ar  
    35    16    85 1   
    36    17    18 1   
    37    17    19 ar  
    38    18    86 1   
    39    19    20 ar  
    40    19    87 1   
    41    20    21 ar  
    42    20    88 1   
    43    21    89 1   
    44    22    23 1   
    45    22    90 1   
    46    23    24 1   
    47    23    91 1   
    48    23    92 1   
    49    24    25 2   
    50    24   135 1   
    51    26    27 1   
    52    26    94 1   
    53    26    95 1   
    54    26   135 1   
    55    27    28 1   
    56    27    39 1   
    57    27    96 1   
    58    28    29 1   
    59    28    97 1   
    60    29    30 1   
    61    29    38 2   
    62    30    31 ar  
    63    30    37 ar  
    64    31    32 1   
    65    31    33 ar  
    66    32    98 1   
    67    33    34 1   
    68    33    35 ar  
    69    34    99 1   
    70    35    36 ar  
    71    35   100 1   
    72    36    37 ar  
    73    36   101 1   
    74    37   102 1   
    75    39    48 2   
    76    39   133 1   
    77    40    41 1   
    78    40   104 1   
    79    40   105 1   
    80    40   133 1   
    81    41    42 1   
    82    41    44 1   
    83    41   106 1   
    84    42   107 1   
    85    42   132 1   
    86    43   132 2   
    87    44    45 2   
    88    44    46 1   
    89    46    47 1   
    90    46   108 1   
    91    47   109 1   
    92    47   110 1   
    93    49   132 1   
    94    50   111 1   
    95    51   112 1   
    96    52    53 2   
    97    53    54 1   
    98    54    77 1   
    99    55    56 1   
   100    55    77 1   
   101    56    57 2   
   102    56    58 1   
   103    58    59 1   
   104    58    63 1   
   105    59    60 1   
   106    59   113 1   
   107    59   114 1   
   108    60    61 1   
   109    60   115 1   
   110    60   116 1   
   111    61    62 1   
   112    61    64 1   
   113    62    63 1   
   114    62   117 1   
   115    62   118 1   
   116    63   119 1   
   117    63   120 1   
   118    64    65 ar  
   119    64    69 ar  
   120    65    66 ar  
   121    65   121 1   
   122    66    67 ar  
   123    66   122 1   
   124    67    68 ar  
   125    68    69 ar  
   126    68   123 1   
   127    69    70 1   
   128    72    73 1   
   129    72   124 1   
   130    72   125 1   
   131    73    74 1   
   132    73   126 1   
   133    74    75 1   
   134    74    76 2   
   135    75   127 1   
   136    75   128 1   
   137    75   129 1   
   138    77   130 1   
   139    77   131 1   
   140    93   135 1   
   141   103   133 1   
@<TRIPOS>SUBSTRUCTURE
     1 V82         1 TEMP              0 ****  ****    0 ROOT
