@<TRIPOS>MOLECULE
V82
  135   141     1     0     0
SMALL
No Charge or Current Charge


@<TRIPOS>ATOM
      1 C4         104.0660    36.5350   136.0340 ca         1 V82       0.098100
      2 C14       -105.3960    32.5640   141.8400 cc         1 V82      -0.166000
      3 C5         104.1590    37.9330   136.0800 ca         1 V82      -0.103000
      4 C6        -105.3280    38.5350   136.5680 ca         1 V82      -0.123000
      5 C11        -98.3070    43.1460   134.0090 c5         1 V82       0.128300
      6 C7        -106.4050    37.7390   136.9930 ca         1 V82      -0.071000
      7 C8         -97.9510    40.9960   134.7530 c          1 V82       0.707100
      8 C10       -106.6330    32.1350   141.4520 cd         1 V82       0.158300
      9 C12        -99.2090    42.9400   135.2610 c5         1 V82       0.080000
     10 N1         -99.0390    41.4980   135.4790 n          1 V82      -0.269400
     11 C3         105.1380    35.7230   136.4570 ca         1 V82       0.087100
     12 OAC       -100.2240    34.1080   139.4310 o          1 V82      -0.570100
     13 CBI        100.0890    34.3080   138.2330 c          1 V82       0.619700
     14 CBT        -99.0120    35.2200   137.6840 ca         1 V82      -0.224600
     15 CBQ        -98.5200    35.1600   136.3510 ca         1 V82       0.087100
     16 OAK        -98.8810    34.1620   135.4810 oh         1 V82      -0.583100
     17 CBN        -97.5800    36.1120   135.9000 ca         1 V82       0.117100
     18 OAH        -97.1190    36.0340   134.6180 oh         1 V82      -0.530100
     19 CAR        -97.1000    37.1100   136.7580 ca         1 V82      -0.104000
     20 CAO        -97.5470    37.1540   138.0850 ca         1 V82      -0.113000
     21 CAU        -98.4850    36.2150   138.5440 ca         1 V82      -0.085000
     22 NBC       -100.9260    33.7180   137.3180 ns         1 V82      -0.511900
     23 CAY        102.0430    32.8030   137.6510 c3         1 V82       0.013000
     24 CBH       -102.4650    31.9440   136.4370 c          1 V82       0.593100
     25 OAB        101.8980    32.0070   135.3500 o          1 V82      -0.673100
     26 CB        -104.0560    30.1330   135.6790 c3         1 V82       0.088000
     27 CA         105.2870    30.6640   134.8940 c3         1 V82       0.001700
     28 N         -104.9880    31.9810   134.2640 ns         1 V82      -0.521900
     29 CBJ        104.0750    32.1440   133.2500 c          1 V82       0.614700
     30 CBU       -103.7070    33.5700   132.9500 ca         1 V82      -0.179600
     31 CBR        102.3610    33.9470   132.7430 ca         1 V82       0.066100
     32 OAL       -101.3390    33.0580   132.9630 oh         1 V82      -0.569100
     33 CBO        102.0460    35.2730   132.3820 ca         1 V82       0.131100
     34 OAI       -100.7400    35.6130   132.1830 oh         1 V82      -0.524100
     35 CAS        103.0570    36.2370   132.2550 ca         1 V82      -0.107000
     36 CAP       -104.3940    35.8790   132.4990 ca         1 V82      -0.099000
     37 CAV        104.7180    34.5550   132.8460 ca         1 V82      -0.112000
     38 OAD       -103.6320    31.1940   132.6190 o          1 V82      -0.561100
     39 C          106.5790    30.7090   135.7570 c          1 V82       0.600100
     40 CBA       -108.6380    32.0930   136.2590 c3         1 V82       0.093000
     41 CBX        108.2870    33.1400   137.3440 c3         1 V82       0.010700
     42 NBG       -107.7120    34.3460   136.7110 ns         1 V82      -0.502900
     43 OAE        108.2500    35.8780   138.2980 o          1 V82      -0.547100
     44 CBL       -107.2560    32.5860   138.3680 c          1 V82       0.609100
     45 OAF        106.0730    32.9260   138.3600 o          1 V82      -0.678100
     46 NBB       -107.7590    31.7030   139.2970 ns         1 V82      -0.449900
     47 CAX        106.9730    31.1190   140.3900 c3         1 V82       0.097700
     48 O1        -106.7820    29.9460   136.6900 o          1 V82      -0.607100
     49 C2         106.3350    36.3280   136.9270 ca         1 V82      -0.205600
     50 O8        -104.9530    34.3570   136.4330 oh         1 V82      -0.628100
     51 O9         102.9270    35.9330   135.5980 oh         1 V82      -0.530100
     52 N11       -107.5990    32.8070   142.1750 nd         1 V82      -0.350000
     53 N12        107.0180    33.6560   142.9800 nc         1 V82      -0.164800
     54 N13       -105.6760    33.5420   142.7630 na         1 V82       0.085800
     55 O21        104.0220    35.2340   142.5970 os         1 V82      -0.468100
     56 C22       -104.7200    36.2640   142.0320 c          1 V82       0.637100
     57 O23        105.8400    36.6140   142.3690 o          1 V82      -0.500000
     58 N24       -103.9880    36.8810   141.0050 n          1 V82      -0.400800
     59 C25        102.6210    36.4310   140.6110 c6         1 V82       0.099000
     60 C26       -102.1300    36.9970   139.2500 c6         1 V82       0.194800
     61 N27        102.2630    38.4800   139.1440 nh         1 V82      -0.800400
     62 C28       -103.4780    39.0620   139.8000 c6         1 V82       0.194800
     63 C29        104.5480    38.0080   140.2100 c6         1 V82       0.099000
     64 C30       -101.4600    39.2460   138.2390 ca         1 V82       0.265000
     65 C31        100.8670    38.6230   137.1200 ca         1 V82      -0.137000
     66 C32       -100.0960    39.3520   136.1980 ca         1 V82      -0.082000
     67 C33        -99.9240    40.7450   136.3380 ca         1 V82      -0.042000
     68 C34       -100.4370    41.3580   137.4980 ca         1 V82      -0.142000
     69 C35        101.2090    40.6350   138.4220 ca         1 V82       0.131000
     70 F36       -101.6770    41.3010   139.5060 f          1 V82      -0.179000
     71 O24        -97.4260    41.9970   133.9900 os         1 V82      -0.416100
     72 C17        -99.0960    43.2220   132.6710 c3         1 V82       0.097000
     73 N23        100.0080    42.0930   132.4040 ns         1 V82      -0.524900
     74 C24        -99.6860    40.9040   131.7880 c          1 V82       0.611100
     75 C27        -98.4280    40.8490   130.9220 c3         1 V82      -0.179100
     76 O36       -100.4400    39.9510   131.8850 o          1 V82      -0.591100
     77 C1         104.7060    34.3590   143.5210 c3         1 V82       0.328600
     78 H1        -104.3980    32.3000   141.5170 h4         1 V82       0.170000
     79 H2         103.3250    38.5450   135.7480 ha         1 V82       0.137000
     80 H3        -105.4010    39.6200   136.6150 ha         1 V82       0.123000
     81 H4         -97.7030    44.0580   134.1010 h1         1 V82       0.087700
     82 H5        -107.3080    38.2230   137.3610 ha         1 V82       0.132000
     83 H6         -98.8360    43.5150   136.1180 h1         1 V82       0.058200
     84 H7        -100.2570    43.2140   135.0790 h1         1 V82       0.058200
     85 H8         -98.8160    33.2960   135.9450 ho         1 V82       0.508000
     86 H9         -97.5850    35.2650   134.2190 ho         1 V82       0.499000
     87 H10        -96.3750    37.8350   136.3980 ha         1 V82       0.150000
     88 H11        -97.1710    37.9210   138.7600 ha         1 V82       0.124000
     89 H12        -98.8240    36.2830   139.5760 ha         1 V82       0.121000
     90 H13       -100.7650    33.9550   136.3440 hn         1 V82       0.324500
     91 H14        102.9100    33.3840   137.9880 h1         1 V82       0.087200
     92 H15       -101.7430    32.1220   138.4580 h1         1 V82       0.087200
     93 H16        103.9490    31.1210   137.5850 hn         1 V82       0.335500
     94 H17       -104.3230    29.2010   136.1960 h1         1 V82       0.081700
     95 H18        103.2610    29.8790   134.9660 h1         1 V82       0.081700
     96 H19       -105.5100    29.9500   134.0900 h1         1 V82       0.114700
     97 H20        105.1950    32.8260   134.7880 hn         1 V82       0.331500
     98 H21       -101.5680    32.5250   133.7780 ho         1 V82       0.497000
     99 H22        100.2310    34.7900   132.3580 ho         1 V82       0.488000
    100 H23       -102.8030    37.2590   131.9880 ha         1 V82       0.152000
    101 H24        105.1800    36.6260   132.4140 ha         1 V82       0.117000
    102 H25       -105.7610    34.2910   133.0030 ha         1 V82       0.110000
    103 H26        107.2720    32.2440   134.6030 hn         1 V82       0.334500
    104 H27       -109.4050    32.5100   135.5920 h1         1 V82       0.074200
    105 H28        109.0620    31.1950   136.7270 h1         1 V82       0.074200
    106 H29       -109.1970    33.4140   137.8930 h1         1 V82       0.093700
    107 H30        107.0870    34.2070   135.9270 hn         1 V82       0.317500
    108 H31       -108.7460    31.4830   139.2410 hn         1 V82       0.331500
    109 H32        107.5470    30.3020   140.8450 h1         1 V82       0.067200
    110 H33       -106.0480    30.6960   139.9780 h1         1 V82       0.067200
    111 H34        105.3980    33.9400   137.2310 ho         1 V82       0.532000
    112 H35       -103.1490    34.9780   135.5780 ho         1 V82       0.480000
    113 H36        102.5920    35.3340   140.5550 h1         1 V82       0.066200
    114 H37       -101.9140    36.7370   141.3940 h1         1 V82       0.066200
    115 H38        102.6990    36.5130   138.4440 h1         1 V82       0.055950
    116 H39       -101.0800    36.7090   139.1270 h1         1 V82       0.055950
    117 H40        103.1750    39.6050   140.7070 h1         1 V82       0.055950
    118 H41       -103.9550    39.7920   139.1290 h1         1 V82       0.055950
    119 H42        105.3420    38.5160   140.7730 h1         1 V82       0.066200
    120 H43       -105.0070    37.5940   139.3030 h1         1 V82       0.066200
    121 H44        101.0130    37.5630   136.9400 ha         1 V82       0.131000
    122 H45        -99.6740    38.8230   135.3480 ha         1 V82       0.151000
    123 H46        100.2500    42.4100   137.6960 ha         1 V82       0.132000
    124 H47        -98.3840    43.3360   131.8440 h1         1 V82       0.061200
    125 H48        -99.7020    44.1380   132.6890 h1         1 V82       0.061200
    126 H49       -100.9000    42.0890   132.8860 hn         1 V82       0.310500
    127 H50        -98.3150    39.8850   130.4140 hc         1 V82       0.065367
    128 H51        -98.4490    41.6780   130.2060 hc         1 V82       0.065367
    129 H52        -97.5490    41.0800   131.5310 hc         1 V82       0.065367
    130 H53       -104.0050    33.6730   144.0080 h2         1 V82       0.096200
    131 H54        105.2420    34.9210   144.2950 h2         1 V82       0.096200
    132 CBK       -107.5330    35.5340   137.3710 c          1 V82       0.608700
    133 NBE        107.4660    31.7210   135.4500 ns         1 V82      -0.508900
    134 O13        -97.4980    39.8630   134.7960 o          1 V82      -0.509000
    135 NBD        103.5220    31.0870   136.6660 ns         1 V82      -0.482900
@<TRIPOS>BOND
     1     1     3 ar  
     2     1    11 ar  
     3     1    51 1   
     4     2     8 2   
     5     2    54 1   
     6     2    78 1   
     7     3     4 ar  
     8     3    79 1   
     9     4     6 ar  
    10     4    80 1   
    11     5     9 1   
    12     5    71 1   
    13     5    72 1   
    14     5    81 1   
    15     6    49 ar  
    16     6    82 1   
    17     7    10 1   
    18     7    71 1   
    19     7   134 2   
    20     8    47 1   
    21     8    52 1   
    22     9    10 1   
    23     9    83 1   
    24     9    84 1   
    25    10    67 1   
    26    11    49 ar  
    27    11    50 1   
    28    12    13 2   
    29    13    14 1   
    30    13    22 1   
    31    14    15 ar  
    32    14    21 ar  
    33    15    16 1   
    34    15    17 ar  
    35    16    85 1   
    36    17    18 1   
    37    17    19 ar  
    38    18    86 1   
    39    19    20 ar  
    40    19    87 1   
    41    20    21 ar  
    42    20    88 1   
    43    21    89 1   
    44    22    23 1   
    45    22    90 1   
    46    23    24 1   
    47    23    91 1   
    48    23    92 1   
    49    24    25 2   
    50    24   135 1   
    51    26    27 1   
    52    26    94 1   
    53    26    95 1   
    54    26   135 1   
    55    27    28 1   
    56    27    39 1   
    57    27    96 1   
    58    28    29 1   
    59    28    97 1   
    60    29    30 1   
    61    29    38 2   
    62    30    31 ar  
    63    30    37 ar  
    64    31    32 1   
    65    31    33 ar  
    66    32    98 1   
    67    33    34 1   
    68    33    35 ar  
    69    34    99 1   
    70    35    36 ar  
    71    35   100 1   
    72    36    37 ar  
    73    36   101 1   
    74    37   102 1   
    75    39    48 2   
    76    39   133 1   
    77    40    41 1   
    78    40   104 1   
    79    40   105 1   
    80    40   133 1   
    81    41    42 1   
    82    41    44 1   
    83    41   106 1   
    84    42   107 1   
    85    42   132 1   
    86    43   132 2   
    87    44    45 2   
    88    44    46 1   
    89    46    47 1   
    90    46   108 1   
    91    47   109 1   
    92    47   110 1   
    93    49   132 1   
    94    50   111 1   
    95    51   112 1   
    96    52    53 2   
    97    53    54 1   
    98    54    77 1   
    99    55    56 1   
   100    55    77 1   
   101    56    57 2   
   102    56    58 1   
   103    58    59 1   
   104    58    63 1   
   105    59    60 1   
   106    59   113 1   
   107    59   114 1   
   108    60    61 1   
   109    60   115 1   
   110    60   116 1   
   111    61    62 1   
   112    61    64 1   
   113    62    63 1   
   114    62   117 1   
   115    62   118 1   
   116    63   119 1   
   117    63   120 1   
   118    64    65 ar  
   119    64    69 ar  
   120    65    66 ar  
   121    65   121 1   
   122    66    67 ar  
   123    66   122 1   
   124    67    68 ar  
   125    68    69 ar  
   126    68   123 1   
   127    69    70 1   
   128    72    73 1   
   129    72   124 1   
   130    72   125 1   
   131    73    74 1   
   132    73   126 1   
   133    74    75 1   
   134    74    76 2   
   135    75   127 1   
   136    75   128 1   
   137    75   129 1   
   138    77   130 1   
   139    77   131 1   
   140    93   135 1   
   141   103   133 1   
@<TRIPOS>SUBSTRUCTURE
     1 V82         1 TEMP              0 ****  ****    0 ROOT
