@<TRIPOS>MOLECULE
V83
   48    50     1     0     0
SMALL
No Charge or Current Charge


@<TRIPOS>ATOM
      1 OAQ         -1.2670   -11.9110    21.6240 o          1 V83      -0.721500
      2 CAP         -2.2720   -12.2580    21.0210 c          1 V83       0.722000
      3 OAR         -3.3890   -12.2740    21.5150 o          1 V83      -0.721500
      4 CAO         -2.1310   -12.6440    19.5290 c6         1 V83      -0.187700
      5 CAN         -1.3100   -13.9530    19.3520 c6         1 V83      -0.026200
      6 CAM         -0.9420   -14.2260    17.8970 c2         1 V83      -0.227200
      7 CAL         -0.9910   -13.2970    16.9250 c2         1 V83      -0.225200
      8 CAK         -1.4230   -11.8550    17.1540 c6         1 V83      -0.027200
      9 CAJ         -1.5150   -11.5030    18.6620 c6         1 V83      -0.113700
     10 CAH         -2.1310   -10.1070    18.9240 c          1 V83       0.595100
     11 OAI         -3.2880    -9.8540    18.6150 o          1 V83      -0.619100
     12 NAG         -1.2840    -9.1870    19.5100 ns         1 V83      -0.387100
     13 CAF         -1.5060    -7.8500    19.8390 cc         1 V83       0.039600
     14 SAS         -3.0320    -7.0100    19.5820 ss         1 V83       0.254000
     15 CAT         -2.3830    -5.5460    20.2810 cc         1 V83      -0.291300
     16 CAZ         -3.2640    -4.3330    20.4400 c3         1 V83       0.015900
     17 CAY         -3.4290    -3.9040    21.9150 c3         1 V83      -0.066400
     18 CAX         -2.1950    -3.2010    22.5310 c3         1 V83      -0.067400
     19 CAW         -0.9080    -4.0580    22.6210 c3         1 V83      -0.067400
     20 CAV         -0.3330    -4.4950    21.2540 c3         1 V83      -0.013100
     21 CAU         -1.0680    -5.6840    20.6570 cd         1 V83      -0.019300
     22 CAE         -0.5470    -7.0220    20.4260 cd         1 V83      -0.255600
     23 CAC          0.8470    -7.4970    20.7800 c          1 V83       0.631700
     24 OAD          1.6710    -6.8050    21.3600 o          1 V83      -0.533000
     25 OAB          1.1470    -8.7890    20.4170 os         1 V83      -0.406100
     26 CAA          2.4510    -9.3120    20.7330 c3         1 V83       0.157900
     27 H2          -3.1430   -12.8470    19.1540 hc         1 V83       0.043700
     28 H3          -1.8850   -14.8000    19.7520 hc         1 V83       0.051700
     29 H4          -0.3850   -13.9050    19.9430 hc         1 V83       0.051700
     30 H5          -0.6230   -15.2450    17.6690 ha         1 V83       0.157000
     31 H6          -0.7130   -13.5560    15.9010 ha         1 V83       0.162000
     32 H7          -0.7210   -11.1720    16.6570 hc         1 V83       0.040200
     33 H8          -2.3990   -11.7010    16.6740 hc         1 V83       0.040200
     34 H9          -0.4720   -11.4250    18.9990 hc         1 V83       0.082700
     35 H10         -0.3670    -9.5600    19.7290 hn         1 V83       0.420500
     36 H11         -2.8680    -3.4950    19.8540 hc         1 V83       0.036700
     37 H12         -4.2590    -4.5480    20.0310 hc         1 V83       0.036700
     38 H13         -4.2790    -3.2120    21.9780 hc         1 V83       0.034700
     39 H14         -3.6960    -4.7780    22.5220 hc         1 V83       0.034700
     40 H15         -1.9800    -2.2890    21.9590 hc         1 V83       0.025200
     41 H16         -2.4580    -2.8710    23.5430 hc         1 V83       0.025200
     42 H17         -1.0900    -4.9420    23.2430 hc         1 V83       0.036200
     43 H18         -0.1450    -3.4650    23.1410 hc         1 V83       0.036200
     44 H19          0.7370    -4.6630    21.3690 hc         1 V83       0.053700
     45 H20         -0.3920    -3.6470    20.5610 hc         1 V83       0.053700
     46 H21          2.5420   -10.3480    20.3830 h1         1 V83       0.046033
     47 H22          3.2380    -8.7190    20.2480 h1         1 V83       0.046033
     48 H23          2.6250    -9.3020    21.8170 h1         1 V83       0.046033
@<TRIPOS>BOND
     1     1     2 1   
     2     2     3 1   
     3     2     4 1   
     4     4     5 1   
     5     4     9 1   
     6     4    27 1   
     7     5     6 1   
     8     5    28 1   
     9     5    29 1   
    10     6     7 2   
    11     6    30 1   
    12     7     8 1   
    13     7    31 1   
    14     8     9 1   
    15     8    32 1   
    16     8    33 1   
    17     9    10 1   
    18     9    34 1   
    19    10    11 2   
    20    10    12 1   
    21    12    13 1   
    22    12    35 1   
    23    13    14 1   
    24    13    22 2   
    25    14    15 1   
    26    15    16 1   
    27    15    21 2   
    28    16    17 1   
    29    16    36 1   
    30    16    37 1   
    31    17    18 1   
    32    17    38 1   
    33    17    39 1   
    34    18    19 1   
    35    18    40 1   
    36    18    41 1   
    37    19    20 1   
    38    19    42 1   
    39    19    43 1   
    40    20    21 1   
    41    20    44 1   
    42    20    45 1   
    43    21    22 1   
    44    22    23 1   
    45    23    24 2   
    46    23    25 1   
    47    25    26 1   
    48    26    46 1   
    49    26    47 1   
    50    26    48 1   
@<TRIPOS>SUBSTRUCTURE
     1 V83         1 TEMP              0 ****  ****    0 ROOT
