@<TRIPOS>MOLECULE
V83
   48    50     1     0     0
SMALL
abcg2


@<TRIPOS>ATOM
      1 OAQ          0.1650   -13.4940    21.1040 o          1 V83      -0.721500
      2 CAP         -0.0130   -12.4170    20.5200 c          1 V83       0.722000
      3 OAR          0.6760   -11.3750    20.6720 o          1 V83      -0.721500
      4 CAO         -1.2010   -12.2930    19.5430 c6         1 V83      -0.187700
      5 CAN         -1.8250   -13.6350    19.1400 c6         1 V83      -0.026200
      6 CAM         -2.9310   -13.4180    18.1500 c2         1 V83      -0.227200
      7 CAL         -2.7060   -12.6160    17.1140 c2         1 V83      -0.225200
      8 CAK         -1.3430   -12.0110    16.9790 c6         1 V83      -0.027200
      9 CAJ         -0.8300   -11.4240    18.3030 c6         1 V83      -0.113700
     10 CAH         -1.3530   -10.0160    18.5040 c          1 V83       0.595100
     11 OAI         -2.2850    -9.5480    17.8720 o          1 V83      -0.619100
     12 NAG         -0.7080    -9.3060    19.4720 ns         1 V83      -0.387100
     13 CAF         -1.0480    -8.0160    19.8170 cc         1 V83       0.039600
     14 SAS         -2.4920    -7.2900    19.2080 ss         1 V83       0.254000
     15 CAT         -2.1930    -5.8200    20.0570 cc         1 V83      -0.291300
     16 CAZ         -3.1820    -4.7010    19.9600 c3         1 V83       0.015900
     17 CAY         -3.7800    -4.2960    21.3080 c3         1 V83      -0.066400
     18 CAX         -2.8160    -3.5410    22.2150 c3         1 V83      -0.067400
     19 CAW         -1.5950    -4.3190    22.6980 c3         1 V83      -0.067400
     20 CAV         -0.5850    -4.7030    21.6130 c3         1 V83      -0.013100
     21 CAU         -1.0260    -5.8530    20.7480 cd         1 V83      -0.019300
     22 CAE         -0.3510    -7.1200    20.6090 cd         1 V83      -0.255600
     23 CAC          0.9960    -7.3650    21.1490 c          1 V83       0.631700
     24 OAD          1.8600    -6.5230    21.2390 o          1 V83      -0.533000
     25 OAB          1.1720    -8.6230    21.5230 os         1 V83      -0.406100
     26 CAA          2.4640    -9.0100    21.9830 c3         1 V83       0.157900
     27 H2          -1.9840   -11.7680    20.1060 hc         1 V83       0.043700
     28 H3          -2.1900   -14.1470    20.0290 hc         1 V83       0.051700
     29 H4          -1.0550   -14.2840    18.7060 hc         1 V83       0.051700
     30 H5          -3.8900   -13.9020    18.2970 ha         1 V83       0.157000
     31 H6          -3.4660   -12.4120    16.3690 ha         1 V83       0.162000
     32 H7          -0.6390   -12.7950    16.6810 hc         1 V83       0.040200
     33 H8          -1.3060   -11.2620    16.1890 hc         1 V83       0.040200
     34 H9           0.2590   -11.3610    18.2340 hc         1 V83       0.082700
     35 H10         -0.0270    -9.8520    20.0320 hn         1 V83       0.420500
     36 H11         -2.7040    -3.8270    19.5050 hc         1 V83       0.036700
     37 H12         -3.9890    -4.9860    19.2810 hc         1 V83       0.036700
     38 H13         -4.6460    -3.6560    21.1180 hc         1 V83       0.034700
     39 H14         -4.1580    -5.1860    21.8190 hc         1 V83       0.034700
     40 H15         -2.4750    -2.6390    21.6940 hc         1 V83       0.025200
     41 H16         -3.3700    -3.1910    23.0910 hc         1 V83       0.025200
     42 H17         -1.9130    -5.2190    23.2330 hc         1 V83       0.036200
     43 H18         -1.0750    -3.6970    23.4310 hc         1 V83       0.036200
     44 H19          0.3640    -4.9350    22.0890 hc         1 V83       0.053700
     45 H20         -0.3920    -3.8280    20.9810 hc         1 V83       0.053700
     46 H21          2.3940   -10.0730    22.1870 h1         1 V83       0.046033
     47 H22          3.2280    -8.8360    21.2250 h1         1 V83       0.046033
     48 H23          2.7360    -8.4750    22.8930 h1         1 V83       0.046033
@<TRIPOS>BOND
     1     1     2 1   
     2     2     3 1   
     3     2     4 1   
     4     4     5 1   
     5     4     9 1   
     6     4    27 1   
     7     5     6 1   
     8     5    28 1   
     9     5    29 1   
    10     6     7 2   
    11     6    30 1   
    12     7     8 1   
    13     7    31 1   
    14     8     9 1   
    15     8    32 1   
    16     8    33 1   
    17     9    10 1   
    18     9    34 1   
    19    10    11 2   
    20    10    12 1   
    21    12    13 1   
    22    12    35 1   
    23    13    14 1   
    24    13    22 2   
    25    14    15 1   
    26    15    16 1   
    27    15    21 2   
    28    16    17 1   
    29    16    36 1   
    30    16    37 1   
    31    17    18 1   
    32    17    38 1   
    33    17    39 1   
    34    18    19 1   
    35    18    40 1   
    36    18    41 1   
    37    19    20 1   
    38    19    42 1   
    39    19    43 1   
    40    20    21 1   
    41    20    44 1   
    42    20    45 1   
    43    21    22 1   
    44    22    23 1   
    45    23    24 2   
    46    23    25 1   
    47    25    26 1   
    48    26    46 1   
    49    26    47 1   
    50    26    48 1   
@<TRIPOS>SUBSTRUCTURE
     1 V83         1 TEMP              0 ****  ****    0 ROOT
