@<TRIPOS>MOLECULE
V84
   62    67     1     0     0
SMALL
abcg2


@<TRIPOS>ATOM
      1 C1          37.2540    11.7030    30.1370 c3         1 V84      -0.101100
      2 C2          38.0350    11.1350    31.3230 c3         1 V84       0.151700
      3 C4          37.9670     9.6260    31.3760 cx         1 V84      -0.151700
      4 C5          36.8510     8.9720    32.1400 cx         1 V84      -0.122900
      5 C6          38.2640     8.9160    32.6650 cx         1 V84      -0.122900
      6 C8          40.4020    11.1480    30.3400 c5         1 V84       0.144300
      7 C11         43.8970    12.6590    30.7570 ca         1 V84      -0.137500
      8 C12         43.5940    13.4610    31.8700 ca         1 V84      -0.083000
      9 C15         41.3530    12.6840    31.8570 ca         1 V84      -0.138600
     10 C16         39.9230    12.4900    32.2150 c          1 V84       0.576600
     11 C18         45.2680    12.6750    30.2060 cc         1 V84       0.476500
     12 C19         45.7500    11.6420    29.3670 cc         1 V84      -0.239000
     13 N22         49.0860    12.9770    28.8720 nc         1 V84      -0.666100
     14 C23         49.4070    14.1320    29.4790 cd         1 V84       0.681500
     15 O29         49.3320    16.6520    31.0260 o          1 V84      -0.652100
     16 C31         46.9650    17.3960    32.4200 cy         1 V84       0.106700
     17 C33         45.9500    17.2980    33.5820 cy         1 V84      -0.119400
     18 C34         45.4310    18.7060    33.1990 cy         1 V84       0.146300
     19 C37         46.1020    18.5440    31.8230 cy         1 V84      -0.119400
     20 N7          39.4190    11.6000    31.3140 n          1 V84      -0.417800
     21 C9          41.6380    11.8900    30.7500 ca         1 V84      -0.088300
     22 C10         42.8990    11.8610    30.1880 ca         1 V84      -0.084000
     23 C13         42.3290    13.4950    32.4470 ca         1 V84      -0.008300
     24 C14         42.0520    14.3640    33.6400 c3         1 V84      -0.050800
     25 O17         39.2950    13.0170    33.1340 o          1 V84      -0.551000
     26 C20         47.0340    11.7010    28.8920 cd         1 V84      -0.012000
     27 N21         47.7970    12.7480    29.2430 na         1 V84       0.131900
     28 N24         50.6470    14.6620    29.3800 nv         1 V84      -1.004200
     29 C25         48.3310    14.6660    30.2420 cd         1 V84      -0.425800
     30 C26         47.2930    13.7440    30.0760 cd         1 V84       0.449500
     31 N27         46.0470    13.7020    30.5430 nd         1 V84      -0.704000
     32 C28         48.3310    15.9130    30.9950 c          1 V84       0.664300
     33 N30         47.1820    16.2020    31.6500 ns         1 V84      -0.489900
     34 O36         46.0750    19.7610    33.9160 oh         1 V84      -0.655000
     35 H6          37.2940    12.7930    30.1360 hc         1 V84       0.043033
     36 H4          37.6580    11.3390    29.1910 hc         1 V84       0.043033
     37 H5          36.2100    11.3920    30.2010 hc         1 V84       0.043033
     38 H1          37.6120    11.5320    32.2480 h1         1 V84       0.083700
     39 H7          38.2760     9.1260    30.4650 hc         1 V84       0.074700
     40 H9          36.1500     9.6200    32.6520 hc         1 V84       0.074950
     41 H8          36.4180     8.0670    31.7360 hc         1 V84       0.074950
     42 H10         38.7910     7.9730    32.6190 hc         1 V84       0.074950
     43 H11         38.5060     9.5300    33.5230 hc         1 V84       0.074950
     44 H12         40.0950    11.3970    29.3200 h1         1 V84       0.063200
     45 H13         40.5380    10.0640    30.3920 h1         1 V84       0.063200
     46 H15         44.3810    14.0680    32.2960 ha         1 V84       0.135000
     47 H19         45.1400    10.7920    29.1080 ha         1 V84       0.143000
     48 H2          47.9300    17.7680    32.7520 h1         1 V84       0.097700
     49 H25         45.1950    16.5350    33.3830 hc         1 V84       0.060950
     50 H24         46.3430    17.1710    34.5910 hc         1 V84       0.060950
     51 H3          44.3490    18.8450    33.2110 h1         1 V84       0.049700
     52 H27         46.6220    19.4170    31.4300 hc         1 V84       0.060950
     53 H28         45.4010    18.1640    31.0780 hc         1 V84       0.060950
     54 H14         43.0930    11.2500    29.3170 ha         1 V84       0.120000
     55 H18         41.7050    13.7700    34.4880 hc         1 V84       0.056367
     56 H16         42.9500    14.9060    33.9340 hc         1 V84       0.056367
     57 H17         41.2630    15.0860    33.4210 hc         1 V84       0.056367
     58 H20         47.4870    10.9560    28.2540 h4         1 V84       0.167000
     59 H22         51.2400    14.3520    28.6270 hn         1 V84       0.502000
     60 H21         50.7410    15.6150    29.6990 hn         1 V84       0.502000
     61 H23         46.4020    15.5680    31.5170 hn         1 V84       0.332500
     62 H26         45.7910    19.7120    34.8380 ho         1 V84       0.440000
@<TRIPOS>BOND
     1     1     2 1   
     2     1    35 1   
     3     1    36 1   
     4     1    37 1   
     5     2     3 1   
     6     2    20 1   
     7     2    38 1   
     8     3     4 1   
     9     3     5 1   
    10     3    39 1   
    11     4     5 1   
    12     4    40 1   
    13     4    41 1   
    14     5    42 1   
    15     5    43 1   
    16     6    20 1   
    17     6    21 1   
    18     6    44 1   
    19     6    45 1   
    20     7     8 ar  
    21     7    11 1   
    22     7    22 ar  
    23     8    23 ar  
    24     8    46 1   
    25     9    10 1   
    26     9    21 ar  
    27     9    23 ar  
    28    10    20 1   
    29    10    25 2   
    30    11    12 1   
    31    11    31 2   
    32    12    26 2   
    33    12    47 1   
    34    13    14 2   
    35    13    27 1   
    36    14    28 1   
    37    14    29 1   
    38    15    32 2   
    39    16    17 1   
    40    16    19 1   
    41    16    33 1   
    42    16    48 1   
    43    17    18 1   
    44    17    49 1   
    45    17    50 1   
    46    18    19 1   
    47    18    34 1   
    48    18    51 1   
    49    19    52 1   
    50    19    53 1   
    51    21    22 ar  
    52    22    54 1   
    53    23    24 1   
    54    24    55 1   
    55    24    56 1   
    56    24    57 1   
    57    26    27 1   
    58    26    58 1   
    59    27    30 1   
    60    28    59 1   
    61    28    60 1   
    62    29    30 2   
    63    29    32 1   
    64    30    31 1   
    65    32    33 1   
    66    33    61 1   
    67    34    62 1   
@<TRIPOS>SUBSTRUCTURE
     1 V84         1 TEMP              0 ****  ****    0 ROOT
