@<TRIPOS>MOLECULE
V84
   62    67     1     0     0
SMALL
No Charge or Current Charge


@<TRIPOS>ATOM
      1 C1          37.1680    11.4050    30.1430 c3         1 V84      -0.101100
      2 C2          37.9990    10.9750    31.3670 c3         1 V84       0.151700
      3 C4          37.9750     9.4600    31.5600 cx         1 V84      -0.151700
      4 C5          36.8870     8.7910    32.3680 cx         1 V84      -0.122900
      5 C6          38.3010     8.8450    32.9010 cx         1 V84      -0.122900
      6 C8          40.4480    10.9390    30.3880 c5         1 V84       0.144300
      7 C11         43.8650    12.7900    30.6640 ca         1 V84      -0.137500
      8 C12         43.4530    13.7410    31.6480 ca         1 V84      -0.083000
      9 C15         41.2360    12.7990    31.7030 ca         1 V84      -0.138600
     10 C16         39.8160    12.5700    32.0580 c          1 V84       0.576600
     11 C18         45.2580    12.8180    30.1290 cc         1 V84       0.476500
     12 C19         45.7290    11.8300    29.1850 cc         1 V84      -0.239000
     13 N22         49.1460    13.0720    28.7210 nc         1 V84      -0.666100
     14 C23         49.3880    14.1480    29.4410 cd         1 V84       0.681500
     15 O29         49.3780    16.5590    31.1950 o          1 V84      -0.652100
     16 C31         47.0090    17.1890    32.6510 cy         1 V84       0.106700
     17 C33         45.6510    17.2800    33.4230 cy         1 V84      -0.119400
     18 C34         45.8460    18.8300    33.3880 cy         1 V84       0.146300
     19 C37         46.6270    18.5850    32.0570 cy         1 V84      -0.119400
     20 N7          39.3820    11.4830    31.2840 n          1 V84      -0.417800
     21 C9          41.5980    11.8690    30.7490 ca         1 V84      -0.088300
     22 C10         42.8960    11.8460    30.2180 ca         1 V84      -0.084000
     23 C13         42.1450    13.7580    32.1780 ca         1 V84      -0.008300
     24 C14         41.7510    14.7880    33.2280 c3         1 V84      -0.050800
     25 O17         39.1400    13.1990    32.8620 o          1 V84      -0.551000
     26 C20         47.0100    11.8300    28.6580 cd         1 V84      -0.012000
     27 N21         47.8420    12.8590    29.0970 na         1 V84       0.131900
     28 N24         50.5980    14.6870    29.3670 nv         1 V84      -1.004200
     29 C25         48.3480    14.6550    30.2420 cd         1 V84      -0.425800
     30 C26         47.2970    13.7580    30.0020 cd         1 V84       0.449500
     31 N27         46.0320    13.8100    30.5600 nd         1 V84      -0.704000
     32 C28         48.3960    15.8400    31.0930 c          1 V84       0.664300
     33 N30         47.2300    16.0830    31.7660 ns         1 V84      -0.489900
     34 O36         46.6170    19.3700    34.4520 oh         1 V84      -0.655000
     35 H6          37.1640    12.4970    30.0480 hc         1 V84       0.043033
     36 H4          37.5790    10.9790    29.2210 hc         1 V84       0.043033
     37 H5          36.1300    11.0680    30.2460 hc         1 V84       0.043033
     38 H1          37.5220    11.4220    32.2490 h1         1 V84       0.083700
     39 H7          38.3270     8.9210    30.6830 hc         1 V84       0.074700
     40 H9          36.1410     9.4220    32.8470 hc         1 V84       0.074950
     41 H8          36.5120     7.8320    32.0180 hc         1 V84       0.074950
     42 H10         38.8770     7.9220    32.9080 hc         1 V84       0.074950
     43 H11         38.5050     9.5140    33.7340 hc         1 V84       0.074950
     44 H12         40.1750    11.0230    29.3280 h1         1 V84       0.063200
     45 H13         40.6870     9.8930    30.6220 h1         1 V84       0.063200
     46 H15         44.1530    14.4840    32.0210 ha         1 V84       0.135000
     47 H19         45.0700    11.0380    28.8660 ha         1 V84       0.143000
     48 H2          47.8710    17.2520    33.3310 h1         1 V84       0.097700
     49 H25         44.7820    16.9250    32.8560 hc         1 V84       0.060950
     50 H24         45.6330    16.8150    34.4140 hc         1 V84       0.060950
     51 H3          44.9190    19.4050    33.2710 h1         1 V84       0.049700
     52 H27         47.4620    19.2630    31.8560 hc         1 V84       0.060950
     53 H28         45.9920    18.5390    31.1640 hc         1 V84       0.060950
     54 H14         43.1130    11.0980    29.4650 ha         1 V84       0.120000
     55 H18         41.4190    14.2990    34.1520 hc         1 V84       0.056367
     56 H16         42.5860    15.4480    33.4880 hc         1 V84       0.056367
     57 H17         40.9310    15.4210    32.8690 hc         1 V84       0.056367
     58 H20         47.4120    11.1120    27.9520 h4         1 V84       0.167000
     59 H22         51.1290    14.4780    28.5320 hn         1 V84       0.502000
     60 H21         50.6910    15.6190    29.7610 hn         1 V84       0.502000
     61 H23         46.4890    15.4120    31.5880 hn         1 V84       0.332500
     62 H26         46.0460    19.3870    35.2520 ho         1 V84       0.440000
@<TRIPOS>BOND
     1     1     2 1   
     2     1    35 1   
     3     1    36 1   
     4     1    37 1   
     5     2     3 1   
     6     2    20 1   
     7     2    38 1   
     8     3     4 1   
     9     3     5 1   
    10     3    39 1   
    11     4     5 1   
    12     4    40 1   
    13     4    41 1   
    14     5    42 1   
    15     5    43 1   
    16     6    20 1   
    17     6    21 1   
    18     6    44 1   
    19     6    45 1   
    20     7     8 ar  
    21     7    11 1   
    22     7    22 ar  
    23     8    23 ar  
    24     8    46 1   
    25     9    10 1   
    26     9    21 ar  
    27     9    23 ar  
    28    10    20 1   
    29    10    25 2   
    30    11    12 1   
    31    11    31 2   
    32    12    26 2   
    33    12    47 1   
    34    13    14 2   
    35    13    27 1   
    36    14    28 1   
    37    14    29 1   
    38    15    32 2   
    39    16    17 1   
    40    16    19 1   
    41    16    33 1   
    42    16    48 1   
    43    17    18 1   
    44    17    49 1   
    45    17    50 1   
    46    18    19 1   
    47    18    34 1   
    48    18    51 1   
    49    19    52 1   
    50    19    53 1   
    51    21    22 ar  
    52    22    54 1   
    53    23    24 1   
    54    24    55 1   
    55    24    56 1   
    56    24    57 1   
    57    26    27 1   
    58    26    58 1   
    59    27    30 1   
    60    28    59 1   
    61    28    60 1   
    62    29    30 2   
    63    29    32 1   
    64    30    31 1   
    65    32    33 1   
    66    33    61 1   
    67    34    62 1   
@<TRIPOS>SUBSTRUCTURE
     1 V84         1 TEMP              0 ****  ****    0 ROOT
