@<TRIPOS>MOLECULE
V85
   33    34     1     0     0
SMALL
No Charge or Current Charge


@<TRIPOS>ATOM
      1 C10        -21.3440   -10.8210    -3.1790 ca         1 V85      -0.149000
      2 C13        -17.3260   -11.5850    -6.3900 ca         1 V85      -0.098300
      3 C15        -18.4530   -12.1440    -8.4820 ca         1 V85      -0.109500
      4 C17        -18.6540    -9.9030    -7.5590 ca         1 V85      -0.109500
      5 C02        -17.2680   -12.8360    -4.1780 c3         1 V85       0.001300
      6 C03        -18.4730   -12.0300    -3.6270 c          1 V85       0.606100
      7 C05        -21.0300   -11.9940    -3.9030 ca         1 V85      -0.020000
      8 C06        -22.0790   -12.7450    -4.4690 ca         1 V85      -0.149000
      9 C07        -23.4170   -12.3440    -4.3100 ca         1 V85      -0.083500
     10 C08        -23.7190   -11.1810    -3.5830 ca         1 V85      -0.136000
     11 C09        -22.6820   -10.4200    -3.0200 ca         1 V85      -0.083500
     12 C12        -16.4670   -12.0020    -5.2020 c3         1 V85      -0.011100
     13 C14        -17.6380   -12.5180    -7.3990 ca         1 V85      -0.102500
     14 C16        -18.9610   -10.8370    -8.5620 ca         1 V85      -0.105000
     15 C18        -17.8390   -10.2760    -6.4760 ca         1 V85      -0.102500
     16 N04        -19.7030   -12.4590    -4.1130 ns         1 V85      -0.140000
     17 O11        -18.3300   -11.1180    -2.8190 o          1 V85      -0.558100
     18 S01        -16.1950   -13.4830    -2.7920 sh         1 V85      -0.393800
     19 H1         -20.5690   -10.2030    -2.7380 ha         1 V85       0.127000
     20 H2         -18.6910   -12.8690    -9.2580 ha         1 V85       0.114500
     21 H3         -19.0480    -8.8910    -7.6190 ha         1 V85       0.114500
     22 H4         -17.6680   -13.7160    -4.6980 h1         1 V85       0.068700
     23 H5         -21.8590   -13.6470    -5.0360 ha         1 V85       0.127000
     24 H6         -24.2180   -12.9340    -4.7500 ha         1 V85       0.113500
     25 H7         -24.7530   -10.8690    -3.4600 ha         1 V85       0.115000
     26 H8         -22.9150    -9.5170    -2.4610 ha         1 V85       0.113500
     27 H9         -15.6120   -12.5930    -5.5520 hc         1 V85       0.074200
     28 H10        -16.0430   -11.1220    -4.7010 hc         1 V85       0.074200
     29 H11        -17.2520   -13.5340    -7.3440 ha         1 V85       0.116500
     30 H12        -19.5920   -10.5490    -9.4000 ha         1 V85       0.114000
     31 H13        -17.6120    -9.5460    -5.7020 ha         1 V85       0.116500
     32 H14        -19.6450   -13.2380    -4.7550 hn         1 V85       0.150000
     33 H15        -17.1740   -14.1500    -2.1300 hs         1 V85       0.206800
@<TRIPOS>BOND
     1     1     7 ar  
     2     1    11 ar  
     3     1    19 1   
     4     2    12 1   
     5     2    13 ar  
     6     2    15 ar  
     7     3    13 ar  
     8     3    14 ar  
     9     3    20 1   
    10     4    14 ar  
    11     4    15 ar  
    12     4    21 1   
    13     5     6 1   
    14     5    12 1   
    15     5    18 1   
    16     5    22 1   
    17     6    16 1   
    18     6    17 2   
    19     7     8 ar  
    20     7    16 1   
    21     8     9 ar  
    22     8    23 1   
    23     9    10 ar  
    24     9    24 1   
    25    10    11 ar  
    26    10    25 1   
    27    11    26 1   
    28    12    27 1   
    29    12    28 1   
    30    13    29 1   
    31    14    30 1   
    32    15    31 1   
    33    16    32 1   
    34    18    33 1   
@<TRIPOS>SUBSTRUCTURE
     1 V85         1 TEMP              0 ****  ****    0 ROOT
