@<TRIPOS>MOLECULE
V85
   33    34     1     0     0
SMALL
abcg2


@<TRIPOS>ATOM
      1 C10        -21.2910   -10.8580    -3.1810 ca         1 V85      -0.149000
      2 C13        -17.3470   -11.5750    -6.3570 ca         1 V85      -0.098300
      3 C15        -18.4480   -12.1360    -8.4350 ca         1 V85      -0.109500
      4 C17        -18.7030    -9.9370    -7.5060 ca         1 V85      -0.109500
      5 C02        -17.3340   -12.8400    -4.1980 c3         1 V85       0.001300
      6 C03        -18.5300   -12.0340    -3.7080 c          1 V85       0.606100
      7 C05        -21.0100   -12.0190    -3.9030 ca         1 V85      -0.020000
      8 C06        -22.0650   -12.7290    -4.4830 ca         1 V85      -0.149000
      9 C07        -23.3710   -12.2940    -4.3450 ca         1 V85      -0.083500
     10 C08        -23.6540   -11.1390    -3.6260 ca         1 V85      -0.136000
     11 C09        -22.6070   -10.4330    -3.0520 ca         1 V85      -0.083500
     12 C12        -16.5110   -11.9910    -5.1760 c3         1 V85      -0.011100
     13 C14        -17.6350   -12.4900    -7.3680 ca         1 V85      -0.102500
     14 C16        -18.9880   -10.8570    -8.5050 ca         1 V85      -0.105000
     15 C18        -17.8890   -10.2960    -6.4390 ca         1 V85      -0.102500
     16 N04        -19.7240   -12.5370    -4.0980 ns         1 V85      -0.140000
     17 O11        -18.3850   -11.0180    -3.0550 o          1 V85      -0.558100
     18 S01        -16.2550   -13.3030    -2.8050 sh         1 V85      -0.393800
     19 H1         -20.5020   -10.2860    -2.7220 ha         1 V85       0.127000
     20 H2         -18.6600   -12.8580    -9.2140 ha         1 V85       0.114500
     21 H3         -19.1140    -8.9370    -7.5560 ha         1 V85       0.114500
     22 H4         -17.6470   -13.7550    -4.7040 h1         1 V85       0.068700
     23 H5         -21.8580   -13.6300    -5.0500 ha         1 V85       0.127000
     24 H6         -24.1700   -12.8610    -4.8040 ha         1 V85       0.113500
     25 H7         -24.6740   -10.7960    -3.5160 ha         1 V85       0.115000
     26 H8         -22.8090    -9.5310    -2.4890 ha         1 V85       0.113500
     27 H9         -15.6550   -12.5820    -5.5060 hc         1 V85       0.074200
     28 H10        -16.1210   -11.1130    -4.6580 hc         1 V85       0.074200
     29 H11        -17.2160   -13.4890    -7.3210 ha         1 V85       0.116500
     30 H12        -19.6220   -10.5790    -9.3370 ha         1 V85       0.114000
     31 H13        -17.6700    -9.5710    -5.6640 ha         1 V85       0.116500
     32 H14        -19.6940   -13.3910    -4.6350 hn         1 V85       0.150000
     33 H15        -17.0700   -14.2090    -2.2510 hs         1 V85       0.206800
@<TRIPOS>BOND
     1     1     7 ar  
     2     1    11 ar  
     3     1    19 1   
     4     2    12 1   
     5     2    13 ar  
     6     2    15 ar  
     7     3    13 ar  
     8     3    14 ar  
     9     3    20 1   
    10     4    14 ar  
    11     4    15 ar  
    12     4    21 1   
    13     5     6 1   
    14     5    12 1   
    15     5    18 1   
    16     5    22 1   
    17     6    16 1   
    18     6    17 2   
    19     7     8 ar  
    20     7    16 1   
    21     8     9 ar  
    22     8    23 1   
    23     9    10 ar  
    24     9    24 1   
    25    10    11 ar  
    26    10    25 1   
    27    11    26 1   
    28    12    27 1   
    29    12    28 1   
    30    13    29 1   
    31    14    30 1   
    32    15    31 1   
    33    16    32 1   
    34    18    33 1   
@<TRIPOS>SUBSTRUCTURE
     1 V85         1 TEMP              0 ****  ****    0 ROOT
