@<TRIPOS>MOLECULE
V86
   22    22     1     0     0
SMALL
No Charge or Current Charge


@<TRIPOS>ATOM
      1 C7          50.0590    22.2830    21.8100 ca         1 V86      -0.090000
      2 C8          51.4390    22.0040    21.8240 ca         1 V86       0.013100
      3 C1          55.6360    20.4780    22.2320 c3         1 V86       0.104000
      4 C5          49.6610    20.4000    20.3380 ca         1 V86      -0.102000
      5 C6          49.1700    21.4840    21.0770 ca         1 V86      -0.097000
      6 C4          51.0340    20.1120    20.3420 ca         1 V86      -0.078000
      7 C3          51.9510    20.8910    21.0910 ca         1 V86      -0.122600
      8 C2          53.4120    20.4720    21.0400 c          1 V86       0.611700
      9 Br          52.5250    23.2640    22.7950 br         1 V86      -0.098100
     10 O           53.8650    19.8440    20.0910 o          1 V86      -0.587100
     11 N           54.2180    20.8200    22.1010 ns         1 V86      -0.498900
     12 C           55.8400    19.0260    22.6970 c3         1 V86      -0.114100
     13 H1          49.6750    23.1360    22.3640 ha         1 V86       0.133000
     14 H2          56.1360    20.6310    21.2660 h1         1 V86       0.056700
     15 H3          56.0940    21.1610    22.9590 h1         1 V86       0.056700
     16 H4          48.9760    19.7810    19.7620 ha         1 V86       0.122000
     17 H5          48.1060    21.7110    21.0740 ha         1 V86       0.120000
     18 H6          51.3870    19.2580    19.7660 ha         1 V86       0.127000
     19 H7          53.7730    21.3290    22.8550 hn         1 V86       0.317500
     20 H8          56.9100    18.8090    22.8030 hc         1 V86       0.042367
     21 H9          55.3580    18.8600    23.6680 hc         1 V86       0.042367
     22 H10         55.4170    18.3200    21.9730 hc         1 V86       0.042367
@<TRIPOS>BOND
     1     1     2 ar  
     2     1     5 ar  
     3     1    13 1   
     4     2     7 ar  
     5     2     9 1   
     6     3    11 1   
     7     3    12 1   
     8     3    14 1   
     9     3    15 1   
    10     4     5 ar  
    11     4     6 ar  
    12     4    16 1   
    13     5    17 1   
    14     6     7 ar  
    15     6    18 1   
    16     7     8 1   
    17     8    10 2   
    18     8    11 1   
    19    11    19 1   
    20    12    20 1   
    21    12    21 1   
    22    12    22 1   
@<TRIPOS>SUBSTRUCTURE
     1 V86         1 TEMP              0 ****  ****    0 ROOT
