@<TRIPOS>MOLECULE
V86
   22    22     1     0     0
SMALL
abcg2


@<TRIPOS>ATOM
      1 C7          50.0890    22.5260    21.4020 ca         1 V86      -0.090000
      2 C8          51.4610    22.3090    21.4100 ca         1 V86       0.013100
      3 C1          55.4770    20.3400    22.4530 c3         1 V86       0.104000
      4 C5          49.7590    20.2210    20.7780 ca         1 V86      -0.102000
      5 C6          49.2390    21.4730    21.0870 ca         1 V86      -0.097000
      6 C4          51.1330    20.0210    20.7870 ca         1 V86      -0.078000
      7 C3          52.0040    21.0640    21.1080 ca         1 V86      -0.122600
      8 C2          53.4880    20.8110    21.0710 c          1 V86       0.611700
      9 BR          52.6130    23.7850    21.8290 br         1 V86      -0.098100
     10 O           54.0970    20.7900    20.0020 o          1 V86      -0.587100
     11 N           54.0550    20.6020    22.2670 ns         1 V86      -0.498900
     12 C           55.8050    18.8510    22.4500 c3         1 V86      -0.114100
     13 H1          49.6920    23.5040    21.6370 ha         1 V86       0.133000
     14 H2          56.0130    20.8520    21.6550 h1         1 V86       0.056700
     15 H3          55.7710    20.7950    23.4000 h1         1 V86       0.056700
     16 H4          49.0970    19.4010    20.5320 ha         1 V86       0.122000
     17 H5          48.1690    21.6380    21.0810 ha         1 V86       0.120000
     18 H6          51.5460    19.0500    20.5470 ha         1 V86       0.127000
     19 H7          53.4600    20.6080    23.0810 hn         1 V86       0.317500
     20 H8          56.8770    18.7030    22.5980 hc         1 V86       0.042367
     21 H9          55.2740    18.3350    23.2520 hc         1 V86       0.042367
     22 H10         55.5220    18.3960    21.4990 hc         1 V86       0.042367
@<TRIPOS>BOND
     1     1     2 ar  
     2     1     5 ar  
     3     1    13 1   
     4     2     7 ar  
     5     2     9 1   
     6     3    11 1   
     7     3    12 1   
     8     3    14 1   
     9     3    15 1   
    10     4     5 ar  
    11     4     6 ar  
    12     4    16 1   
    13     5    17 1   
    14     6     7 ar  
    15     6    18 1   
    16     7     8 1   
    17     8    10 2   
    18     8    11 1   
    19    11    19 1   
    20    12    20 1   
    21    12    21 1   
    22    12    22 1   
@<TRIPOS>SUBSTRUCTURE
     1 V86         1 TEMP              0 ****  ****    0 ROOT
