@<TRIPOS>MOLECULE
V87
   28    28     1     0     0
SMALL
abcg2


@<TRIPOS>ATOM
      1 CAC        -14.1450    -8.0600   -12.9400 c          1 V87       0.595900
      2 NAD        -12.8900    -8.5140   -13.0080 ns         1 V87      -0.516900
      3 OAE        -14.5280    -7.1430   -12.2310 o          1 V87      -0.603100
      4 CAF        -11.7820    -7.9290   -12.2840 c3         1 V87       0.097000
      5 CAG        -11.1590    -6.7340   -12.9970 c3         1 V87      -0.101400
      6 CAH         -9.9960    -6.1450   -12.2100 c3         1 V87      -0.071400
      7 CAI         -9.3480    -4.9560   -12.9200 c3         1 V87      -0.030100
      8 CAJ         -8.2350    -4.3470   -12.1130 ca         1 V87      -0.078300
      9 CAK         -8.4340    -3.1720   -11.3920 ca         1 V87      -0.107500
     10 CAL         -7.4180    -2.6270   -10.6160 ca         1 V87      -0.109500
     11 CAM         -6.1820    -3.2550   -10.5460 ca         1 V87      -0.112000
     12 CAN         -5.9700    -4.4280   -11.2610 ca         1 V87      -0.109500
     13 CAO         -6.9880    -4.9670   -12.0360 ca         1 V87      -0.107500
     14 H1         -14.8250    -8.6210   -13.6000 h5         1 V87       0.004200
     15 H2         -12.6950    -9.2500   -13.6670 hn         1 V87       0.311500
     16 H3         -11.0350    -8.7100   -12.1380 h1         1 V87       0.053200
     17 H4         -12.1300    -7.6330   -11.2930 h1         1 V87       0.053200
     18 H5         -11.9250    -5.9690   -13.1510 hc         1 V87       0.047200
     19 H6         -10.8170    -7.0430   -13.9900 hc         1 V87       0.047200
     20 H7         -10.3430    -5.8290   -11.2210 hc         1 V87       0.043700
     21 H8          -9.2390    -6.9170   -12.0380 hc         1 V87       0.043700
     22 H9          -8.9660    -5.2840   -13.8910 hc         1 V87       0.047200
     23 H10        -10.1090    -4.1970   -13.1220 hc         1 V87       0.047200
     24 H11         -9.3960    -2.6740   -11.4400 ha         1 V87       0.110500
     25 H12         -7.5930    -1.7100   -10.0680 ha         1 V87       0.111500
     26 H13         -5.3890    -2.8340    -9.9410 ha         1 V87       0.112000
     27 H14         -5.0080    -4.9240   -11.2170 ha         1 V87       0.111500
     28 H15         -6.8090    -5.8810   -12.5900 ha         1 V87       0.110500
@<TRIPOS>BOND
     1     1     2 1   
     2     1     3 2   
     3     1    14 1   
     4     2     4 1   
     5     2    15 1   
     6     4     5 1   
     7     4    16 1   
     8     4    17 1   
     9     5     6 1   
    10     5    18 1   
    11     5    19 1   
    12     6     7 1   
    13     6    20 1   
    14     6    21 1   
    15     7     8 1   
    16     7    22 1   
    17     7    23 1   
    18     8     9 ar  
    19     8    13 ar  
    20     9    10 ar  
    21     9    24 1   
    22    10    11 ar  
    23    10    25 1   
    24    11    12 ar  
    25    11    26 1   
    26    12    13 ar  
    27    12    27 1   
    28    13    28 1   
@<TRIPOS>SUBSTRUCTURE
     1 V87         1 TEMP              0 ****  ****    0 ROOT
