@<TRIPOS>MOLECULE
V87
   28    28     1     0     0
SMALL
No Charge or Current Charge


@<TRIPOS>ATOM
      1 CAC        -14.2020    -8.0240   -13.1400 c          1 V87       0.595900
      2 NAD        -12.9390    -8.5490   -12.9640 ns         1 V87      -0.516900
      3 OAE        -14.5650    -6.9730   -12.6280 o          1 V87      -0.603100
      4 CAF        -11.8710    -7.9210   -12.1790 c3         1 V87       0.097000
      5 CAG        -11.1720    -6.7850   -12.9520 c3         1 V87      -0.101400
      6 CAH        -10.0270    -6.1300   -12.1480 c3         1 V87      -0.071400
      7 CAI         -9.3210    -4.9910   -12.9140 c3         1 V87      -0.030100
      8 CAJ         -8.1970    -4.3640   -12.0990 ca         1 V87      -0.078300
      9 CAK         -8.4600    -3.2750   -11.2460 ca         1 V87      -0.107500
     10 CAL         -7.4240    -2.7000   -10.4900 ca         1 V87      -0.109500
     11 CAM         -6.1180    -3.2100   -10.5830 ca         1 V87      -0.112000
     12 CAN         -5.8500    -4.2980   -11.4310 ca         1 V87      -0.109500
     13 CAO         -6.8860    -4.8740   -12.1870 ca         1 V87      -0.107500
     14 H1         -14.8400    -8.6560   -13.7850 h5         1 V87       0.004200
     15 H2         -12.7450    -9.4280   -13.4310 hn         1 V87       0.311500
     16 H3         -11.1340    -8.6920   -11.9170 h1         1 V87       0.053200
     17 H4         -12.2950    -7.5290   -11.2450 h1         1 V87       0.053200
     18 H5         -11.9100    -6.0180   -13.2160 hc         1 V87       0.047200
     19 H6         -10.7710    -7.1840   -13.8920 hc         1 V87       0.047200
     20 H7         -10.4270    -5.7330   -11.2060 hc         1 V87       0.043700
     21 H8          -9.2870    -6.8960   -11.8830 hc         1 V87       0.043700
     22 H9          -8.9260    -5.3840   -13.8600 hc         1 V87       0.047200
     23 H10        -10.0590    -4.2270   -13.1860 hc         1 V87       0.047200
     24 H11         -9.4690    -2.8760   -11.1660 ha         1 V87       0.110500
     25 H12         -7.6330    -1.8580    -9.8330 ha         1 V87       0.111500
     26 H13         -5.3160    -2.7650    -9.9980 ha         1 V87       0.112000
     27 H14         -4.8400    -4.6950   -11.5030 ha         1 V87       0.111500
     28 H15         -6.6710    -5.7170   -12.8390 ha         1 V87       0.110500
@<TRIPOS>BOND
     1     1     2 1   
     2     1     3 2   
     3     1    14 1   
     4     2     4 1   
     5     2    15 1   
     6     4     5 1   
     7     4    16 1   
     8     4    17 1   
     9     5     6 1   
    10     5    18 1   
    11     5    19 1   
    12     6     7 1   
    13     6    20 1   
    14     6    21 1   
    15     7     8 1   
    16     7    22 1   
    17     7    23 1   
    18     8     9 ar  
    19     8    13 ar  
    20     9    10 ar  
    21     9    24 1   
    22    10    11 ar  
    23    10    25 1   
    24    11    12 ar  
    25    11    26 1   
    26    12    13 ar  
    27    12    27 1   
    28    13    28 1   
@<TRIPOS>SUBSTRUCTURE
     1 V87         1 TEMP              0 ****  ****    0 ROOT
