@<TRIPOS>MOLECULE
V88
   88    92     1     0     0
SMALL
abcg2


@<TRIPOS>ATOM
      1 N1          -5.0060   -43.9340    -9.0000 n3         1 V88      -0.744600
      2 N3          -4.3650   -37.5580    -8.3090 nu         1 V88      -0.901100
      3 C4          -7.2610   -39.5210    -8.1450 ca         1 V88       0.434900
      4 C5          -6.6050   -41.8380    -8.6480 c6         1 V88       0.247500
      5 C6          -7.3010   -43.0650    -9.2220 c6         1 V88      -0.093900
      6 C7          -6.2630   -44.0830    -9.7130 c6         1 V88       0.182300
      7 C8          -4.0370   -44.9770    -9.3160 c3         1 V88       0.195500
      8 C10         -4.2890   -46.3120    -8.6110 c3         1 V88      -0.104100
      9 C13         -5.6750   -37.8750    -8.1380 ca         1 V88       0.419900
     10 C15         -3.5910   -38.4270   -10.5080 c3         1 V88       0.127800
     11 C17         -2.1900   -36.5530   -11.0760 c3         1 V88       0.151100
     12 C20        -10.0180   -36.5350    -6.9680 ca         1 V88       0.177100
     13 C21        -10.5270   -34.3830    -6.1010 c3         1 V88       0.170600
     14 C22        -11.7020   -33.6710    -5.4630 c3         1 V88      -0.075400
     15 C24        -12.7470   -36.1220    -2.7510 c5         1 V88       0.221100
     16 C26        -13.9510   -38.3920    -2.2490 ca         1 V88      -0.095000
     17 C28        -15.5200   -39.1020    -3.9440 ca         1 V88      -0.115000
     18 N           -7.5820   -40.8100    -8.3430 nu         1 V88      -0.928100
     19 C          -12.3490   -39.3360    -7.0900 c3         1 V88       0.146900
     20 C1         -10.5010   -37.8630    -7.1870 ca         1 V88       0.089100
     21 C11         -5.2330   -43.6780    -7.5910 c6         1 V88       0.182300
     22 C12         -5.7790   -42.2560    -7.4210 c6         1 V88      -0.093900
     23 C14         -3.4210   -38.4080    -8.9920 c3         1 V88       0.234800
     24 C16         -4.0470   -37.1140   -12.4550 c3         1 V88       0.151100
     25 C18         -7.7760   -37.2480    -7.5710 ca         1 V88       0.118000
     26 C19         -8.6900   -36.2480    -7.1630 ca         1 V88      -0.213000
     27 C2          -9.6250   -38.8400    -7.5740 ca         1 V88      -0.135000
     28 C23        -12.1070   -34.1840    -4.0850 c3         1 V88       0.188800
     29 C25        -13.6720   -37.2720    -3.0120 ca         1 V88      -0.085300
     30 C27        -14.8810   -39.3110    -2.7270 ca         1 V88      -0.115000
     31 C29        -15.2390   -37.9710    -4.7070 ca         1 V88      -0.095000
     32 C3          -8.2530   -38.5560    -7.7600 ca         1 V88      -0.223000
     33 C30        -14.3090   -37.0640    -4.2290 ca         1 V88      -0.085300
     34 C31        -13.8210   -35.7750    -4.8170 c5         1 V88       0.221100
     35 C9          -2.6150   -44.4890    -9.0600 c3         1 V88      -0.104100
     36 N2          -6.0060   -39.1630    -8.3300 nb         1 V88      -0.337000
     37 N4          -3.5260   -37.1080   -11.1060 n3         1 V88      -0.716600
     38 N5          -6.4830   -36.9040    -7.7620 nb         1 V88      -0.291000
     39 N6         -12.5900   -35.5420    -4.0770 n3         1 V88      -0.727600
     40 O1         -10.9420   -35.6570    -6.5720 os         1 V88      -0.314100
     41 H21         -4.1760   -36.5690    -8.3320 hn         1 V88       0.497000
     42 H5          -5.9350   -41.4280    -9.4050 h1         1 V88       0.091700
     43 H6          -7.9610   -42.7880   -10.0460 hc         1 V88       0.048450
     44 H7          -7.9340   -43.5090    -8.4480 hc         1 V88       0.048450
     45 H8          -6.0700   -43.9290   -10.7790 h1         1 V88       0.030950
     46 H9          -6.6890   -45.0940    -9.6140 h1         1 V88       0.030950
     47 H10         -4.1290   -45.1470   -10.3940 h1         1 V88       0.050700
     48 H14         -5.3080   -46.6710    -8.7640 hc         1 V88       0.036700
     49 H16         -3.6120   -47.0780    -8.9930 hc         1 V88       0.036700
     50 H15         -4.1180   -46.2330    -7.5350 hc         1 V88       0.036700
     51 H25         -4.5720   -38.8530   -10.7330 h1         1 V88       0.042700
     52 H24         -2.8420   -39.1150   -10.9370 h1         1 V88       0.042700
     53 H30         -1.8250   -36.4600   -10.0530 h1         1 V88       0.029200
     54 H29         -1.4590   -37.1580   -11.6370 h1         1 V88       0.029200
     55 H31         -2.1940   -35.5520   -11.5090 h1         1 V88       0.029200
     56 H34         -9.7170   -34.4970    -5.3710 h1         1 V88       0.036700
     57 H33        -10.1380   -33.7890    -6.9350 h1         1 V88       0.036700
     58 H35        -11.4090   -32.6240    -5.3440 hc         1 V88       0.051200
     59 H36        -12.5530   -33.6610    -6.1500 hc         1 V88       0.051200
     60 H40        -11.7820   -36.4210    -2.3330 h1         1 V88       0.046950
     61 H39        -13.2090   -35.4260    -2.0290 h1         1 V88       0.046950
     62 H41        -13.4540   -38.5600    -1.3000 ha         1 V88       0.113500
     63 H43        -16.2390   -39.8270    -4.3050 ha         1 V88       0.109500
     64 H4          -8.4890   -41.1290    -8.0460 hn         1 V88       0.486000
     65 H2         -13.4040   -39.2650    -6.8350 h1         1 V88       0.036367
     66 H          -12.2570   -39.7270    -8.1070 h1         1 V88       0.036367
     67 H1         -11.8670   -40.0350    -6.4000 h1         1 V88       0.036367
     68 H18         -5.9260   -44.4070    -7.1420 h1         1 V88       0.030950
     69 H17         -4.2980   -43.7750    -7.0380 h1         1 V88       0.030950
     70 H20         -4.9670   -41.5440    -7.2750 hc         1 V88       0.048450
     71 H19         -6.4090   -42.2120    -6.5280 hc         1 V88       0.048450
     72 H22         -3.5150   -39.4280    -8.6200 h1         1 V88       0.055700
     73 H23         -2.4200   -38.0720    -8.7160 h1         1 V88       0.055700
     74 H26         -5.0760   -37.4790   -12.4580 h1         1 V88       0.029200
     75 H28         -4.0520   -36.1000   -12.8580 h1         1 V88       0.029200
     76 H27         -3.4660   -37.7440   -13.1470 h1         1 V88       0.029200
     77 H32         -8.3030   -35.2490    -7.0160 ha         1 V88       0.135000
     78 H3          -9.9960   -39.8430    -7.7370 ha         1 V88       0.105000
     79 H37        -11.2320   -34.1340    -3.4290 h1         1 V88       0.026700
     80 H38        -12.8520   -33.4880    -3.6610 h1         1 V88       0.026700
     81 H42        -15.1070   -40.1970    -2.1480 ha         1 V88       0.109500
     82 H44        -15.7360   -37.8130    -5.6560 ha         1 V88       0.113500
     83 H46        -13.6400   -35.8340    -5.8920 h1         1 V88       0.046950
     84 H45        -14.5710   -34.9790    -4.6590 h1         1 V88       0.046950
     85 H13         -2.4170   -43.5650    -9.6030 hc         1 V88       0.036700
     86 H11         -2.4310   -44.3030    -8.0000 hc         1 V88       0.036700
     87 H12         -1.8910   -45.2360    -9.3860 hc         1 V88       0.036700
     88 O          -11.8200   -38.0330    -6.9750 os         1 V88      -0.315100
@<TRIPOS>BOND
     1     1     6 1   
     2     1     7 1   
     3     1    21 1   
     4     2     9 1   
     5     2    23 1   
     6     2    41 1   
     7     3    18 1   
     8     3    32 ar  
     9     3    36 ar  
    10     4     5 1   
    11     4    18 1   
    12     4    22 1   
    13     4    42 1   
    14     5     6 1   
    15     5    43 1   
    16     5    44 1   
    17     6    45 1   
    18     6    46 1   
    19     7     8 1   
    20     7    35 1   
    21     7    47 1   
    22     8    48 1   
    23     8    49 1   
    24     8    50 1   
    25     9    36 ar  
    26     9    38 ar  
    27    10    23 1   
    28    10    37 1   
    29    10    51 1   
    30    10    52 1   
    31    11    37 1   
    32    11    53 1   
    33    11    54 1   
    34    11    55 1   
    35    12    20 ar  
    36    12    26 ar  
    37    12    40 1   
    38    13    14 1   
    39    13    40 1   
    40    13    56 1   
    41    13    57 1   
    42    14    28 1   
    43    14    58 1   
    44    14    59 1   
    45    15    29 1   
    46    15    39 1   
    47    15    60 1   
    48    15    61 1   
    49    16    29 ar  
    50    16    30 ar  
    51    16    62 1   
    52    17    30 ar  
    53    17    31 ar  
    54    17    63 1   
    55    18    64 1   
    56    19    65 1   
    57    19    66 1   
    58    19    67 1   
    59    19    88 1   
    60    20    27 ar  
    61    20    88 1   
    62    21    22 1   
    63    21    68 1   
    64    21    69 1   
    65    22    70 1   
    66    22    71 1   
    67    23    72 1   
    68    23    73 1   
    69    24    37 1   
    70    24    74 1   
    71    24    75 1   
    72    24    76 1   
    73    25    26 ar  
    74    25    32 ar  
    75    25    38 ar  
    76    26    77 1   
    77    27    32 ar  
    78    27    78 1   
    79    28    39 1   
    80    28    79 1   
    81    28    80 1   
    82    29    33 ar  
    83    30    81 1   
    84    31    33 ar  
    85    31    82 1   
    86    33    34 1   
    87    34    39 1   
    88    34    83 1   
    89    34    84 1   
    90    35    85 1   
    91    35    86 1   
    92    35    87 1   
@<TRIPOS>SUBSTRUCTURE
     1 V88         1 TEMP              0 ****  ****    0 ROOT
