@<TRIPOS>MOLECULE
V88
   88    92     1     0     0
SMALL
No Charge or Current Charge


@<TRIPOS>ATOM
      1 N1          -5.0740   -44.1710    -9.1140 n3         1 V88      -0.744600
      2 N3          -4.2790   -37.5170    -8.2500 nu         1 V88      -0.901100
      3 C4          -7.2100   -39.5040    -8.2480 ca         1 V88       0.434900
      4 C5          -6.5880   -41.9240    -8.8060 c6         1 V88       0.247500
      5 C6          -7.3190   -43.0920    -9.5150 c6         1 V88      -0.093900
      6 C7          -6.4940   -44.4080    -9.4930 c6         1 V88       0.182300
      7 C8          -4.1700   -45.3240    -9.3920 c3         1 V88       0.195500
      8 C10         -4.4680   -46.5870    -8.5460 c3         1 V88      -0.104100
      9 C13         -5.6020   -37.8960    -8.1120 ca         1 V88       0.419900
     10 C15         -3.3960   -38.1680   -10.5300 c3         1 V88       0.127800
     11 C17         -2.0910   -36.0780   -10.9140 c3         1 V88       0.151100
     12 C20        -10.0150   -36.6020    -6.9550 ca         1 V88       0.177100
     13 C21        -10.5640   -34.3430    -6.0960 c3         1 V88       0.170600
     14 C22        -11.8330   -33.6090    -5.6050 c3         1 V88      -0.075400
     15 C24        -12.9810   -35.8380    -2.5770 c5         1 V88       0.221100
     16 C26        -14.1380   -38.0770    -1.8420 ca         1 V88      -0.095000
     17 C28        -15.4130   -39.2170    -3.5940 ca         1 V88      -0.115000
     18 N           -7.5420   -40.8250    -8.5480 nu         1 V88      -0.928100
     19 C          -12.3610   -39.5170    -7.2160 c3         1 V88       0.146900
     20 C1         -10.4690   -37.9130    -7.2250 ca         1 V88       0.089100
     21 C11         -4.9590   -43.5840    -7.7410 c6         1 V88       0.182300
     22 C12         -5.9620   -42.4270    -7.4860 c6         1 V88      -0.093900
     23 C14         -3.2230   -38.2560    -8.9810 c3         1 V88       0.234800
     24 C16         -3.7730   -36.7990   -12.5500 c3         1 V88       0.151100
     25 C18         -7.7320   -37.2540    -7.5480 ca         1 V88       0.118000
     26 C19         -8.6510   -36.2830    -7.1190 ca         1 V88      -0.213000
     27 C2          -9.5490   -38.8950    -7.6570 ca         1 V88      -0.135000
     28 C23        -12.2920   -33.9890    -4.1750 c3         1 V88       0.188800
     29 C25        -13.8200   -37.0760    -2.7730 ca         1 V88      -0.085300
     30 C27        -14.9440   -39.1560    -2.2630 ca         1 V88      -0.115000
     31 C29        -15.0810   -38.1990    -4.5120 ca         1 V88      -0.095000
     32 C3          -8.1810   -38.5680    -7.8190 ca         1 V88      -0.223000
     33 C30        -14.2790   -37.1350    -4.0700 ca         1 V88      -0.085300
     34 C31        -13.7880   -35.9420    -4.8470 c5         1 V88       0.221100
     35 C9          -2.6770   -44.9380    -9.2970 c3         1 V88      -0.104100
     36 N2          -5.9210   -39.1650    -8.3940 nb         1 V88      -0.337000
     37 N4          -3.3710   -36.7960   -11.1260 n3         1 V88      -0.716600
     38 N5          -6.4330   -36.9300    -7.6990 nb         1 V88      -0.291000
     39 N6         -12.6740   -35.4040    -3.9860 n3         1 V88      -0.727600
     40 O1         -10.9370   -35.6620    -6.5280 os         1 V88      -0.314100
     41 H21         -4.1460   -36.5090    -8.1920 hn         1 V88       0.497000
     42 H5          -5.7770   -41.5860    -9.4720 h1         1 V88       0.091700
     43 H6          -7.5270   -42.8060   -10.5540 hc         1 V88       0.048450
     44 H7          -8.2930   -43.2820    -9.0450 hc         1 V88       0.048450
     45 H8          -6.5600   -44.8820   -10.4840 h1         1 V88       0.030950
     46 H9          -6.9600   -45.1010    -8.7770 h1         1 V88       0.030950
     47 H10         -4.3290   -45.6170   -10.4390 h1         1 V88       0.050700
     48 H14         -5.5060   -46.9140    -8.6680 hc         1 V88       0.036700
     49 H16         -3.8230   -47.4150    -8.8630 hc         1 V88       0.036700
     50 H15         -4.2820   -46.4080    -7.4800 hc         1 V88       0.036700
     51 H25         -4.3500   -38.6530   -10.7780 h1         1 V88       0.042700
     52 H24         -2.6090   -38.7810   -10.9900 h1         1 V88       0.042700
     53 H30         -1.8750   -35.9590    -9.8440 h1         1 V88       0.029200
     54 H29         -1.2560   -36.6210   -11.3770 h1         1 V88       0.029200
     55 H31         -2.1330   -35.0730   -11.3560 h1         1 V88       0.029200
     56 H34         -9.8240   -34.3840    -5.2860 h1         1 V88       0.036700
     57 H33        -10.1300   -33.7830    -6.9350 h1         1 V88       0.036700
     58 H35        -11.6220   -32.5340    -5.6100 hc         1 V88       0.051200
     59 H36        -12.6500   -33.7630    -6.3190 hc         1 V88       0.051200
     60 H40        -12.0670   -36.0500    -2.0050 h1         1 V88       0.046950
     61 H39        -13.5590   -35.0780    -2.0350 h1         1 V88       0.046950
     62 H41        -13.7700   -38.0230    -0.8200 ha         1 V88       0.113500
     63 H43        -16.0340   -40.0520    -3.9120 ha         1 V88       0.109500
     64 H4          -8.5230   -41.0600    -8.4350 hn         1 V88       0.486000
     65 H2         -13.4380   -39.5110    -7.0060 h1         1 V88       0.036367
     66 H          -12.2170   -39.8730    -8.2440 h1         1 V88       0.036367
     67 H1         -11.8840   -40.2250    -6.5250 h1         1 V88       0.036367
     68 H18         -5.1170   -44.3520    -6.9700 h1         1 V88       0.030950
     69 H17         -3.9440   -43.1890    -7.5930 h1         1 V88       0.030950
     70 H20         -5.4520   -41.6100    -6.9610 hc         1 V88       0.048450
     71 H19         -6.7570   -42.7800    -6.8150 hc         1 V88       0.048450
     72 H22         -3.2220   -39.3140    -8.6810 h1         1 V88       0.055700
     73 H23         -2.2370   -37.8530    -8.7140 h1         1 V88       0.055700
     74 H26         -4.7630   -37.2580   -12.6730 h1         1 V88       0.029200
     75 H28         -3.8270   -35.7750   -12.9420 h1         1 V88       0.029200
     76 H27         -3.0540   -37.3640   -13.1590 h1         1 V88       0.029200
     77 H32         -8.2850   -35.2810    -6.9180 ha         1 V88       0.135000
     78 H3          -9.8920   -39.9030    -7.8650 ha         1 V88       0.105000
     79 H37        -11.4770   -33.7400    -3.4820 h1         1 V88       0.026700
     80 H38        -13.1420   -33.3460    -3.9080 h1         1 V88       0.026700
     81 H42        -15.2030   -39.9440    -1.5590 ha         1 V88       0.109500
     82 H44        -15.4370   -38.2380    -5.5390 ha         1 V88       0.113500
     83 H46        -13.4390   -36.2260    -5.8490 h1         1 V88       0.046950
     84 H45        -14.6010   -35.2110    -4.9610 h1         1 V88       0.046950
     85 H13         -2.4730   -44.0390    -9.8900 hc         1 V88       0.036700
     86 H11         -2.3780   -44.7450    -8.2600 hc         1 V88       0.036700
     87 H12         -2.0480   -45.7480    -9.6840 hc         1 V88       0.036700
     88 O          -11.8160   -38.1970    -7.0500 os         1 V88      -0.315100
@<TRIPOS>BOND
     1     1     6 1   
     2     1     7 1   
     3     1    21 1   
     4     2     9 1   
     5     2    23 1   
     6     2    41 1   
     7     3    18 1   
     8     3    32 ar  
     9     3    36 ar  
    10     4     5 1   
    11     4    18 1   
    12     4    22 1   
    13     4    42 1   
    14     5     6 1   
    15     5    43 1   
    16     5    44 1   
    17     6    45 1   
    18     6    46 1   
    19     7     8 1   
    20     7    35 1   
    21     7    47 1   
    22     8    48 1   
    23     8    49 1   
    24     8    50 1   
    25     9    36 ar  
    26     9    38 ar  
    27    10    23 1   
    28    10    37 1   
    29    10    51 1   
    30    10    52 1   
    31    11    37 1   
    32    11    53 1   
    33    11    54 1   
    34    11    55 1   
    35    12    20 ar  
    36    12    26 ar  
    37    12    40 1   
    38    13    14 1   
    39    13    40 1   
    40    13    56 1   
    41    13    57 1   
    42    14    28 1   
    43    14    58 1   
    44    14    59 1   
    45    15    29 1   
    46    15    39 1   
    47    15    60 1   
    48    15    61 1   
    49    16    29 ar  
    50    16    30 ar  
    51    16    62 1   
    52    17    30 ar  
    53    17    31 ar  
    54    17    63 1   
    55    18    64 1   
    56    19    65 1   
    57    19    66 1   
    58    19    67 1   
    59    19    88 1   
    60    20    27 ar  
    61    20    88 1   
    62    21    22 1   
    63    21    68 1   
    64    21    69 1   
    65    22    70 1   
    66    22    71 1   
    67    23    72 1   
    68    23    73 1   
    69    24    37 1   
    70    24    74 1   
    71    24    75 1   
    72    24    76 1   
    73    25    26 ar  
    74    25    32 ar  
    75    25    38 ar  
    76    26    77 1   
    77    27    32 ar  
    78    27    78 1   
    79    28    39 1   
    80    28    79 1   
    81    28    80 1   
    82    29    33 ar  
    83    30    81 1   
    84    31    33 ar  
    85    31    82 1   
    86    33    34 1   
    87    34    39 1   
    88    34    83 1   
    89    34    84 1   
    90    35    85 1   
    91    35    86 1   
    92    35    87 1   
@<TRIPOS>SUBSTRUCTURE
     1 V88         1 TEMP              0 ****  ****    0 ROOT
