@<TRIPOS>MOLECULE
V8A
  118   125     1     0     0
SMALL
No Charge or Current Charge


@<TRIPOS>ATOM
      1 C18          3.0830   -16.6590    13.9460 c3         1 V8A       0.092000
      2 C15          8.7250   -17.5210     5.5230 c3         1 V8A       0.092000
      3 C13          3.2420   -17.0010    11.4900 c          1 V8A       0.607600
      4 C12          6.5080   -17.5120     6.6490 c          1 V8A       0.585100
      5 C14          5.2950   -16.7260    12.8270 c          1 V8A       0.585100
      6 C11          8.5570   -17.1850     7.9780 c          1 V8A       0.607600
      7 O4           2.0180   -17.0430    11.4590 o          1 V8A      -0.572000
      8 N3           9.6960   -16.8010    10.6550 nu         1 V8A      -0.957700
      9 C10          7.7180   -17.0750     9.2350 ca         1 V8A      -0.254600
     10 C9           8.3130   -16.8820    10.5040 ca         1 V8A       0.402000
     11 C8           7.5080   -16.7670    11.6430 ca         1 V8A      -0.111500
     12 C7           6.1060   -16.8510    11.5680 ca         1 V8A      -0.095100
     13 N2           3.9050   -16.8170    12.7100 n          1 V8A      -0.363400
     14 C6           5.6970   -17.3810     7.9070 ca         1 V8A      -0.095100
     15 C5           6.3070   -17.1710     9.1550 ca         1 V8A       0.004500
     16 C4           5.4950   -17.0560    10.3180 ca         1 V8A       0.004500
     17 C3           4.0830   -17.1450    10.2380 ca         1 V8A      -0.254600
     18 C2           3.4900   -17.3700     8.9730 ca         1 V8A       0.402000
     19 C1           4.2950   -17.4780     7.8330 ca         1 V8A      -0.111500
     20 O2           9.7780   -17.0730     8.0000 o          1 V8A      -0.572000
     21 O1           5.8370   -16.5590    13.9130 o          1 V8A      -0.526500
     22 N1           7.8980   -17.4230     6.7650 n          1 V8A      -0.363400
     23 O34         -4.3510   -20.4080    10.7430 os         1 V8A      -0.448000
     24 O85          8.9860   -24.2340     4.8060 os         1 V8A      -0.449500
     25 C25          1.3960   -18.3440     7.8690 c3         1 V8A       0.225300
     26 C26         -0.1050   -18.4120     8.2090 c3         1 V8A      -0.094400
     27 C27         -0.4080   -19.2230     9.4900 c3         1 V8A       0.165800
     28 C32         -2.7710   -19.8430     8.9310 c6         1 V8A       0.125300
     29 C33         -4.2460   -19.8050     9.4310 c6         1 V8A       0.153100
     30 C35         -3.5130   -19.7530    11.7240 c6         1 V8A       0.153100
     31 C36         -2.0220   -19.7960    11.2740 c6         1 V8A       0.125300
     32 C56          2.7910   -18.0040    14.6410 c3         1 V8A      -0.092400
     33 C57          1.9340   -17.8380    15.9140 c3         1 V8A       0.170300
     34 C59          0.4880   -18.8960    17.6200 c6         1 V8A       0.126550
     35 C60          0.0130   -20.2400    18.2500 c6         1 V8A       0.152850
     36 C62          2.1010   -21.2920    17.6770 c6         1 V8A       0.152850
     37 C63          2.6200   -19.9730    17.0290 c6         1 V8A       0.126550
     38 C80          9.2880   -18.9360     5.2620 c3         1 V8A      -0.092400
     39 C81          8.2020   -20.0100     5.0300 c3         1 V8A       0.170300
     40 C83          7.6310   -22.2660     4.1960 c6         1 V8A       0.126550
     41 C84          8.1840   -23.6530     3.7510 c6         1 V8A       0.152850
     42 C86         10.1000   -23.3920     5.1860 c6         1 V8A       0.152850
     43 C87          9.5910   -21.9960     5.6580 c6         1 V8A       0.126550
     44 N31         -1.8310   -19.2070     9.9110 n3         1 V8A      -0.716600
     45 N58          1.4960   -19.1130    16.5340 n3         1 V8A      -0.717100
     46 N6           2.1100   -17.4870     8.8270 nu         1 V8A      -0.957700
     47 N82          8.7250   -21.3380     4.6250 n3         1 V8A      -0.717100
     48 O61          1.1480   -21.0000    18.7260 os         1 V8A      -0.449500
     49 C118        10.4850   -17.2810    11.7970 c3         1 V8A       0.225300
     50 C120        11.9870   -17.2860    11.4580 c3         1 V8A      -0.094400
     51 C121        12.3790   -18.3740    10.4320 c3         1 V8A       0.165800
     52 C140        14.1660   -19.7300     9.3920 c6         1 V8A       0.125300
     53 C141        15.7010   -19.8960     9.1830 c6         1 V8A       0.153100
     54 C143        16.0280   -17.5220     9.4200 c6         1 V8A       0.153100
     55 C144        14.5000   -17.3060     9.6390 c6         1 V8A       0.125300
     56 N139        13.8390   -18.5240    10.2160 n3         1 V8A      -0.716600
     57 O142        16.2610   -18.6940     8.6030 os         1 V8A      -0.448000
     58 H1           3.5940   -15.9920    14.6540 h1         1 V8A       0.068950
     59 H2           2.1340   -16.1640    13.7050 h1         1 V8A       0.068950
     60 H3           9.5630   -16.8140     5.5850 h1         1 V8A       0.068950
     61 H4           8.1400   -17.2040     4.6500 h1         1 V8A       0.068950
     62 H5          10.1720   -16.8250     9.7440 hn         1 V8A       0.536000
     63 H6           7.9830   -16.6040    12.6050 ha         1 V8A       0.144000
     64 H7           3.8200   -17.6360     6.8700 ha         1 V8A       0.144000
     65 H8           1.8140   -19.3610     7.8800 h1         1 V8A       0.047950
     66 H9           1.5130   -17.9440     6.8530 h1         1 V8A       0.047950
     67 H10         -0.5070   -17.3970     8.3060 hc         1 V8A       0.060700
     68 H11         -0.6160   -18.8780     7.3590 hc         1 V8A       0.060700
     69 H12         -0.0750   -20.2590     9.3380 h1         1 V8A       0.037450
     70 H13          0.2040   -18.8100    10.3030 h1         1 V8A       0.037450
     71 H15         -2.7290   -19.3300     7.9600 h1         1 V8A       0.041575
     72 H16         -4.5980   -18.7640     9.4810 h1         1 V8A       0.051325
     73 H17         -4.8940   -20.3510     8.7310 h1         1 V8A       0.051325
     74 H18         -3.8390   -18.7100    11.8440 h1         1 V8A       0.051325
     75 H19         -3.6270   -20.2610    12.6920 h1         1 V8A       0.051325
     76 H20         -1.6820   -20.8420    11.2880 h1         1 V8A       0.041575
     77 H21         -1.4160   -19.2520    12.0140 h1         1 V8A       0.041575
     78 H22          2.2680   -18.6650    13.9410 hc         1 V8A       0.058950
     79 H23          3.7440   -18.4820    14.8930 hc         1 V8A       0.058950
     80 H24          2.4970   -17.2400    16.6440 h1         1 V8A       0.034700
     81 H25          1.0450   -17.2520    15.6400 h1         1 V8A       0.034700
     82 H26          0.9150   -18.2680    18.4160 h1         1 V8A       0.040950
     83 H27         -0.3890   -18.3630    17.2260 h1         1 V8A       0.040950
     84 H28         -0.6660   -20.0400    19.0910 h1         1 V8A       0.049825
     85 H29         -0.5340   -20.8320    17.5020 h1         1 V8A       0.049825
     86 H30          1.6180   -21.9200    16.9130 h1         1 V8A       0.049825
     87 H31          2.9420   -21.8580    18.1010 h1         1 V8A       0.049825
     88 H32          3.2970   -20.2440    16.2070 h1         1 V8A       0.040950
     89 H33          3.2190   -19.4280    17.7740 h1         1 V8A       0.040950
     90 H34          9.9210   -19.2210     6.1100 hc         1 V8A       0.058950
     91 H35          9.9370   -18.8950     4.3790 hc         1 V8A       0.058950
     92 H36          7.5310   -19.6360     4.2440 h1         1 V8A       0.034700
     93 H37          7.6010   -20.1110     5.9440 h1         1 V8A       0.034700
     94 H38          7.0660   -21.8290     3.3600 h1         1 V8A       0.040950
     95 H39          6.9180   -22.4210     5.0190 h1         1 V8A       0.040950
     96 H40          7.3520   -24.3300     3.5160 h1         1 V8A       0.049825
     97 H41          8.8000   -23.5390     2.8470 h1         1 V8A       0.049825
     98 H42         10.6610   -23.8790     5.9960 h1         1 V8A       0.049825
     99 H43         10.7750   -23.2740     4.3260 h1         1 V8A       0.049825
    100 H44         10.4690   -21.3760     5.8840 h1         1 V8A       0.040950
    101 H45          9.0340   -22.1240     6.5980 h1         1 V8A       0.040950
    102 H48          1.6240   -17.3180     9.7170 hn         1 V8A       0.536000
    103 H50         10.3180   -16.6300    12.6670 h1         1 V8A       0.047950
    104 H51         10.1760   -18.2990    12.0750 h1         1 V8A       0.047950
    105 H52         12.5470   -17.4660    12.3830 hc         1 V8A       0.060700
    106 H53         12.2760   -16.2920    11.0980 hc         1 V8A       0.060700
    107 H54         11.8830   -18.1590     9.4760 h1         1 V8A       0.037450
    108 H55         11.9730   -19.3290    10.7920 h1         1 V8A       0.037450
    109 H56         13.6840   -19.6600     8.4050 h1         1 V8A       0.041575
    110 H57         13.7770   -20.6390     9.8750 h1         1 V8A       0.041575
    111 H58         15.8990   -20.7450     8.5140 h1         1 V8A       0.051325
    112 H59         16.1910   -20.0970    10.1470 h1         1 V8A       0.051325
    113 H60         16.5310   -17.6500    10.3900 h1         1 V8A       0.051325
    114 H61         16.4620   -16.6440     8.9230 h1         1 V8A       0.051325
    115 H62         14.3730   -16.4410    10.3040 h1         1 V8A       0.041575
    116 H63         14.0400   -17.0430     8.6750 h1         1 V8A       0.041575
    117 O3           5.9640   -17.6920     5.5660 o          1 V8A      -0.526500
    118 H14         -2.4860   -20.8910     8.7550 h1         1 V8A       0.041575
@<TRIPOS>BOND
     1     1    13 1   
     2     1    32 1   
     3     1    58 1   
     4     1    59 1   
     5     2    22 1   
     6     2    38 1   
     7     2    60 1   
     8     2    61 1   
     9     3     7 2   
    10     3    13 1   
    11     3    17 1   
    12     4    14 1   
    13     4    22 1   
    14     4   117 2   
    15     5    12 1   
    16     5    13 1   
    17     5    21 2   
    18     6     9 1   
    19     6    20 2   
    20     6    22 1   
    21     8    10 1   
    22     8    49 1   
    23     8    62 1   
    24     9    10 ar  
    25     9    15 ar  
    26    10    11 ar  
    27    11    12 ar  
    28    11    63 1   
    29    12    16 ar  
    30    14    15 ar  
    31    14    19 ar  
    32    15    16 ar  
    33    16    17 ar  
    34    17    18 ar  
    35    18    19 ar  
    36    18    46 1   
    37    19    64 1   
    38    23    29 1   
    39    23    30 1   
    40    24    41 1   
    41    24    42 1   
    42    25    26 1   
    43    25    46 1   
    44    25    65 1   
    45    25    66 1   
    46    26    27 1   
    47    26    67 1   
    48    26    68 1   
    49    27    44 1   
    50    27    69 1   
    51    27    70 1   
    52    28    29 1   
    53    28    44 1   
    54    28    71 1   
    55    28   118 1   
    56    29    72 1   
    57    29    73 1   
    58    30    31 1   
    59    30    74 1   
    60    30    75 1   
    61    31    44 1   
    62    31    76 1   
    63    31    77 1   
    64    32    33 1   
    65    32    78 1   
    66    32    79 1   
    67    33    45 1   
    68    33    80 1   
    69    33    81 1   
    70    34    35 1   
    71    34    45 1   
    72    34    82 1   
    73    34    83 1   
    74    35    48 1   
    75    35    84 1   
    76    35    85 1   
    77    36    37 1   
    78    36    48 1   
    79    36    86 1   
    80    36    87 1   
    81    37    45 1   
    82    37    88 1   
    83    37    89 1   
    84    38    39 1   
    85    38    90 1   
    86    38    91 1   
    87    39    47 1   
    88    39    92 1   
    89    39    93 1   
    90    40    41 1   
    91    40    47 1   
    92    40    94 1   
    93    40    95 1   
    94    41    96 1   
    95    41    97 1   
    96    42    43 1   
    97    42    98 1   
    98    42    99 1   
    99    43    47 1   
   100    43   100 1   
   101    43   101 1   
   102    46   102 1   
   103    49    50 1   
   104    49   103 1   
   105    49   104 1   
   106    50    51 1   
   107    50   105 1   
   108    50   106 1   
   109    51    56 1   
   110    51   107 1   
   111    51   108 1   
   112    52    53 1   
   113    52    56 1   
   114    52   109 1   
   115    52   110 1   
   116    53    57 1   
   117    53   111 1   
   118    53   112 1   
   119    54    55 1   
   120    54    57 1   
   121    54   113 1   
   122    54   114 1   
   123    55    56 1   
   124    55   115 1   
   125    55   116 1   
@<TRIPOS>SUBSTRUCTURE
     1 V8A         1 TEMP              0 ****  ****    0 ROOT
