@<TRIPOS>MOLECULE
V8A
  118   125     1     0     0
SMALL
abcg2


@<TRIPOS>ATOM
      1 C18          3.4190   -16.6540    14.0460 c3         1 V8A       0.092000
      2 C15          8.2610   -17.5630     5.4140 c3         1 V8A       0.092000
      3 C13          3.3850   -17.1450    11.6550 c          1 V8A       0.607600
      4 C12          6.1630   -17.6520     6.6720 c          1 V8A       0.585100
      5 C14          5.5170   -16.7990    12.8200 c          1 V8A       0.585100
      6 C11          8.2960   -17.3340     7.8410 c          1 V8A       0.607600
      7 O4           2.1700   -17.2440    11.7700 o          1 V8A      -0.572000
      8 N3           9.6700   -16.9440    10.3660 nu         1 V8A      -0.957700
      9 C10          7.6100   -17.2240     9.1200 ca         1 V8A      -0.254600
     10 C9           8.3320   -17.0170    10.3170 ca         1 V8A       0.402000
     11 C8           7.5800   -16.8820    11.5160 ca         1 V8A      -0.111500
     12 C7           6.2170   -16.9650    11.5310 ca         1 V8A      -0.095100
     13 N2           4.1400   -16.8530    12.7870 n          1 V8A      -0.363400
     14 C6           5.4690   -17.5470     7.9720 ca         1 V8A      -0.095100
     15 C5           6.2050   -17.3200     9.1540 ca         1 V8A       0.004500
     16 C4           5.4810   -17.1980    10.3500 ca         1 V8A       0.004500
     17 C3           4.0750   -17.3040    10.3840 ca         1 V8A      -0.254600
     18 C2           3.3570   -17.5580     9.1940 ca         1 V8A       0.402000
     19 C1           4.1080   -17.6660     7.9910 ca         1 V8A      -0.111500
     20 O2           9.5130   -17.2540     7.7340 o          1 V8A      -0.572000
     21 O1           6.1150   -16.6130    13.8600 o          1 V8A      -0.526500
     22 N1           7.5360   -17.5220     6.6910 n          1 V8A      -0.363400
     23 O34         -4.2890   -20.8550    10.1480 os         1 V8A      -0.448000
     24 O85          8.8730   -24.0290     4.1020 os         1 V8A      -0.449500
     25 C25          1.2350   -17.9360     7.9690 c3         1 V8A       0.225300
     26 C26         -0.2270   -18.1250     8.3390 c3         1 V8A      -0.094400
     27 C27         -0.4690   -19.3820     9.1700 c3         1 V8A       0.165800
     28 C32         -2.7640   -19.8450     8.5560 c6         1 V8A       0.125300
     29 C33         -4.1800   -19.9230     9.0970 c6         1 V8A       0.153100
     30 C35         -3.3920   -20.5400    11.1890 c6         1 V8A       0.153100
     31 C36         -1.9600   -20.4820    10.6930 c6         1 V8A       0.125300
     32 C56          3.1890   -17.9530    14.8060 c3         1 V8A      -0.092400
     33 C57          2.3560   -17.6940    16.0550 c3         1 V8A       0.170300
     34 C59          0.9300   -18.6660    17.7220 c6         1 V8A       0.126550
     35 C60          0.5230   -19.9670    18.3880 c6         1 V8A       0.152850
     36 C62          2.6590   -20.8250    18.0980 c6         1 V8A       0.152850
     37 C63          3.1110   -19.5440    17.4210 c6         1 V8A       0.126550
     38 C80          8.8830   -18.9160     5.0900 c3         1 V8A      -0.092400
     39 C81          7.8670   -19.9960     4.7410 c3         1 V8A       0.170300
     40 C83          7.5080   -22.0870     3.6330 c6         1 V8A       0.126550
     41 C84          8.1820   -23.3320     3.0900 c6         1 V8A       0.152850
     42 C86          9.8280   -23.1950     4.7160 c6         1 V8A       0.152850
     43 C87          9.1940   -21.9430     5.2920 c6         1 V8A       0.126550
     44 N31         -1.8400   -19.5070     9.6240 n3         1 V8A      -0.716600
     45 N58          1.9870   -18.9070    16.7570 n3         1 V8A      -0.717100
     46 N6           2.0240   -17.6890     9.1570 nu         1 V8A      -0.957700
     47 N82          8.4870   -21.2140     4.2550 n3         1 V8A      -0.717100
     48 O61          1.6160   -20.5940    19.0180 os         1 V8A      -0.449500
     49 C118        10.4520   -16.7340    11.5650 c3         1 V8A       0.225300
     50 C120        11.9360   -16.8710    11.2630 c3         1 V8A      -0.094400
     51 C121        12.3210   -18.2870    10.8470 c3         1 V8A       0.165800
     52 C140        14.0750   -19.9050    10.6820 c6         1 V8A       0.125300
     53 C141        15.5780   -20.1050    10.6530 c6         1 V8A       0.153100
     54 C143        15.8710   -18.0310     9.6630 c6         1 V8A       0.153100
     55 C144        14.3740   -17.7790     9.6760 c6         1 V8A       0.125300
     56 N139        13.7550   -18.4920    10.7800 n3         1 V8A      -0.716600
     57 O142        16.1720   -19.4050     9.5830 os         1 V8A      -0.448000
     58 H1           3.9900   -15.9530    14.6510 h1         1 V8A       0.068950
     59 H2           2.4700   -16.1760    13.8130 h1         1 V8A       0.068950
     60 H3           9.0390   -16.8050     5.4530 h1         1 V8A       0.068950
     61 H4           7.5650   -17.2680     4.6330 h1         1 V8A       0.068950
     62 H5          10.1460   -16.9810     9.4750 hn         1 V8A       0.536000
     63 H6           8.0950   -16.6960    12.4470 ha         1 V8A       0.144000
     64 H7           3.5910   -17.8390     7.0580 ha         1 V8A       0.144000
     65 H8           1.5980   -18.8310     7.4520 h1         1 V8A       0.047950
     66 H9           1.3290   -17.1030     7.2660 h1         1 V8A       0.047950
     67 H10         -0.5860   -17.2490     8.8870 hc         1 V8A       0.060700
     68 H11         -0.7950   -18.1640     7.4080 hc         1 V8A       0.060700
     69 H12         -0.1450   -20.2670     8.5950 h1         1 V8A       0.037450
     70 H13          0.1630   -19.3530    10.0620 h1         1 V8A       0.037450
     71 H15         -2.7400   -19.0810     7.7770 h1         1 V8A       0.041575
     72 H16         -4.4900   -18.9240     9.4360 h1         1 V8A       0.051325
     73 H17         -4.8650   -20.2370     8.3080 h1         1 V8A       0.051325
     74 H18         -3.6560   -19.5740    11.6440 h1         1 V8A       0.051325
     75 H19         -3.4950   -21.3100    11.9550 h1         1 V8A       0.051325
     76 H20         -1.6440   -21.4890    10.3670 h1         1 V8A       0.041575
     77 H21         -1.3110   -20.1930    11.5230 h1         1 V8A       0.041575
     78 H22          2.6630   -18.6690    14.1720 hc         1 V8A       0.058950
     79 H23          4.1540   -18.3940    15.0620 hc         1 V8A       0.058950
     80 H24          2.8850   -16.9860    16.7170 h1         1 V8A       0.034700
     81 H25          1.4310   -17.1950    15.7520 h1         1 V8A       0.034700
     82 H26          1.2350   -17.9370    18.4930 h1         1 V8A       0.040950
     83 H27          0.0610   -18.2460    17.2090 h1         1 V8A       0.040950
     84 H28         -0.2310   -19.7760    19.1540 h1         1 V8A       0.049825
     85 H29          0.0780   -20.6340    17.6360 h1         1 V8A       0.049825
     86 H30          2.3410   -21.5450    17.3290 h1         1 V8A       0.049825
     87 H31          3.4890   -21.2690    18.6490 h1         1 V8A       0.049825
     88 H32          3.8840   -19.7990    16.6940 h1         1 V8A       0.040950
     89 H33          3.5740   -18.8730    18.1660 h1         1 V8A       0.040950
     90 H34          9.5230   -19.2250     5.9170 hc         1 V8A       0.058950
     91 H35          9.5390   -18.7690     4.2280 hc         1 V8A       0.058950
     92 H36          7.2220   -19.6150     3.9450 h1         1 V8A       0.034700
     93 H37          7.2090   -20.2010     5.6030 h1         1 V8A       0.034700
     94 H38          7.0250   -21.5600     2.8070 h1         1 V8A       0.040950
     95 H39          6.7120   -22.3810     4.3390 h1         1 V8A       0.040950
     96 H40          7.4360   -24.0120     2.6740 h1         1 V8A       0.049825
     97 H41          8.8700   -23.0500     2.2790 h1         1 V8A       0.049825
     98 H42         10.3020   -23.7720     5.5120 h1         1 V8A       0.049825
     99 H43         10.6080   -22.9090     3.9970 h1         1 V8A       0.049825
    100 H44          9.9890   -21.3240     5.7130 h1         1 V8A       0.040950
    101 H45          8.5220   -22.2180     6.1250 h1         1 V8A       0.040950
    102 H48          1.5430   -17.5350    10.0310 hn         1 V8A       0.536000
    103 H50         10.2550   -15.7420    11.9850 h1         1 V8A       0.047950
    104 H51         10.1750   -17.4660    12.3290 h1         1 V8A       0.047950
    105 H52         12.4870   -16.6080    12.1680 hc         1 V8A       0.060700
    106 H53         12.2140   -16.1390    10.5010 hc         1 V8A       0.060700
    107 H54         11.8380   -18.5540     9.8920 h1         1 V8A       0.037450
    108 H55         11.9230   -18.9790    11.5950 h1         1 V8A       0.037450
    109 H56         13.6270   -20.3660     9.7840 h1         1 V8A       0.041575
    110 H57         13.6660   -20.4300    11.5500 h1         1 V8A       0.041575
    111 H58         15.8120   -21.1630    10.5220 h1         1 V8A       0.051325
    112 H59         16.0080   -19.7790    11.6110 h1         1 V8A       0.051325
    113 H60         16.3180   -17.5920    10.5660 h1         1 V8A       0.051325
    114 H61         16.3230   -17.5460     8.7960 h1         1 V8A       0.051325
    115 H62         14.2120   -16.7050     9.7810 h1         1 V8A       0.041575
    116 H63         13.9380   -18.0800     8.7060 h1         1 V8A       0.041575
    117 O3           5.5560   -17.8340     5.6360 o          1 V8A      -0.526500
    118 H14         -2.4940   -20.8040     8.0790 h1         1 V8A       0.041575
@<TRIPOS>BOND
     1     1    13 1   
     2     1    32 1   
     3     1    58 1   
     4     1    59 1   
     5     2    22 1   
     6     2    38 1   
     7     2    60 1   
     8     2    61 1   
     9     3     7 2   
    10     3    13 1   
    11     3    17 1   
    12     4    14 1   
    13     4    22 1   
    14     4   117 2   
    15     5    12 1   
    16     5    13 1   
    17     5    21 2   
    18     6     9 1   
    19     6    20 2   
    20     6    22 1   
    21     8    10 1   
    22     8    49 1   
    23     8    62 1   
    24     9    10 ar  
    25     9    15 ar  
    26    10    11 ar  
    27    11    12 ar  
    28    11    63 1   
    29    12    16 ar  
    30    14    15 ar  
    31    14    19 ar  
    32    15    16 ar  
    33    16    17 ar  
    34    17    18 ar  
    35    18    19 ar  
    36    18    46 1   
    37    19    64 1   
    38    23    29 1   
    39    23    30 1   
    40    24    41 1   
    41    24    42 1   
    42    25    26 1   
    43    25    46 1   
    44    25    65 1   
    45    25    66 1   
    46    26    27 1   
    47    26    67 1   
    48    26    68 1   
    49    27    44 1   
    50    27    69 1   
    51    27    70 1   
    52    28    29 1   
    53    28    44 1   
    54    28    71 1   
    55    28   118 1   
    56    29    72 1   
    57    29    73 1   
    58    30    31 1   
    59    30    74 1   
    60    30    75 1   
    61    31    44 1   
    62    31    76 1   
    63    31    77 1   
    64    32    33 1   
    65    32    78 1   
    66    32    79 1   
    67    33    45 1   
    68    33    80 1   
    69    33    81 1   
    70    34    35 1   
    71    34    45 1   
    72    34    82 1   
    73    34    83 1   
    74    35    48 1   
    75    35    84 1   
    76    35    85 1   
    77    36    37 1   
    78    36    48 1   
    79    36    86 1   
    80    36    87 1   
    81    37    45 1   
    82    37    88 1   
    83    37    89 1   
    84    38    39 1   
    85    38    90 1   
    86    38    91 1   
    87    39    47 1   
    88    39    92 1   
    89    39    93 1   
    90    40    41 1   
    91    40    47 1   
    92    40    94 1   
    93    40    95 1   
    94    41    96 1   
    95    41    97 1   
    96    42    43 1   
    97    42    98 1   
    98    42    99 1   
    99    43    47 1   
   100    43   100 1   
   101    43   101 1   
   102    46   102 1   
   103    49    50 1   
   104    49   103 1   
   105    49   104 1   
   106    50    51 1   
   107    50   105 1   
   108    50   106 1   
   109    51    56 1   
   110    51   107 1   
   111    51   108 1   
   112    52    53 1   
   113    52    56 1   
   114    52   109 1   
   115    52   110 1   
   116    53    57 1   
   117    53   111 1   
   118    53   112 1   
   119    54    55 1   
   120    54    57 1   
   121    54   113 1   
   122    54   114 1   
   123    55    56 1   
   124    55   115 1   
   125    55   116 1   
@<TRIPOS>SUBSTRUCTURE
     1 V8A         1 TEMP              0 ****  ****    0 ROOT
