@<TRIPOS>MOLECULE
V8B
   39    41     1     0     0
SMALL
No Charge or Current Charge


@<TRIPOS>ATOM
      1 C1         -11.6650    15.3390     1.4200 ce         1 V8B       0.537900
      2 C2         -11.2230    15.0740     0.0080 ca         1 V8B      -0.166900
      3 C3         -11.6830    15.8720    -1.0620 ca         1 V8B      -0.068500
      4 C7         -10.3910    13.9730    -0.2910 ca         1 V8B      -0.068500
      5 C10        -12.8000    17.0900     2.6250 c          1 V8B       0.735100
      6 C11        -10.6610    15.0370     2.5500 c6         1 V8B      -0.035700
      7 C13        -11.6790    17.0280     3.5750 cc         1 V8B      -0.289600
      8 C14        -11.4260    17.8580     4.6350 cd         1 V8B      -0.070000
      9 C15        -10.2400    17.4140     5.2610 cd         1 V8B      -0.193000
     10 C16         -9.7600    16.3140     4.5950 cc         1 V8B      -0.127300
     11 O17        -13.7010    17.9120     2.6550 o          1 V8B      -0.496100
     12 C20         -9.1390    15.4090    -4.6640 c3         1 V8B      -0.097100
     13 C21         -8.5380    15.4810     4.8750 c3         1 V8B      -0.031800
     14 C4         -11.2910    15.5990    -2.3830 ca         1 V8B      -0.113000
     15 C5         -10.4430    14.5110    -2.6850 ca         1 V8B      -0.081300
     16 C6         -10.0000    13.7000    -1.6130 ca         1 V8B      -0.113000
     17 N9         -12.7340    16.0790     1.6350 nf         1 V8B      -0.647100
     18 N12        -10.6660    16.0960     3.5570 na         1 V8B       0.038000
     19 C18         -9.3200    12.8990    -4.3860 c3         1 V8B      -0.097100
     20 O19        -11.2130    14.2370    -4.9580 oh         1 V8B      -0.659000
     21 H1         -12.3410    16.7190    -0.8770 ha         1 V8B       0.127500
     22 H2         -10.0440    13.3110     0.5000 ha         1 V8B       0.127500
     23 H3         -10.9330    14.0900     3.0320 h1         1 V8B       0.079200
     24 H4          -9.6460    14.9400     2.1420 h1         1 V8B       0.079200
     25 H5         -12.0320    18.7080     4.9400 ha         1 V8B       0.149000
     26 H6          -9.7810    17.8700     6.1330 ha         1 V8B       0.138000
     27 H7          -8.2230    15.4770    -4.0660 hc         1 V8B       0.046700
     28 H8          -8.8520    15.2500    -5.7110 hc         1 V8B       0.046700
     29 H9          -9.6580    16.3720    -4.6000 hc         1 V8B       0.046700
     30 H10         -7.8280    15.5350     4.0410 hc         1 V8B       0.050367
     31 H11         -8.0230    15.8280     5.7790 hc         1 V8B       0.050367
     32 H12         -8.8070    14.4280     5.0240 hc         1 V8B       0.050367
     33 H13        -11.6560    16.2420    -3.1810 ha         1 V8B       0.123500
     34 H14         -9.3500    12.8470    -1.7830 ha         1 V8B       0.123500
     35 H15         -9.9320    12.0640    -4.0240 hc         1 V8B       0.046700
     36 H16         -9.1300    12.7370    -5.4540 hc         1 V8B       0.046700
     37 H17         -8.3520    12.8710    -3.8710 hc         1 V8B       0.046700
     38 H18        -11.8570    13.6650    -4.4880 ho         1 V8B       0.443000
     39 C8         -10.0320    14.2540    -4.1540 c3         1 V8B       0.221300
@<TRIPOS>BOND
     1     1     2 1   
     2     1     6 1   
     3     1    17 2   
     4     2     3 ar  
     5     2     4 ar  
     6     3    14 ar  
     7     3    21 1   
     8     4    16 ar  
     9     4    22 1   
    10     5     7 1   
    11     5    11 2   
    12     5    17 1   
    13     6    18 1   
    14     6    23 1   
    15     6    24 1   
    16     7     8 2   
    17     7    18 1   
    18     8     9 1   
    19     8    25 1   
    20     9    10 2   
    21     9    26 1   
    22    10    13 1   
    23    10    18 1   
    24    12    27 1   
    25    12    28 1   
    26    12    29 1   
    27    12    39 1   
    28    13    30 1   
    29    13    31 1   
    30    13    32 1   
    31    14    15 ar  
    32    14    33 1   
    33    15    16 ar  
    34    15    39 1   
    35    16    34 1   
    36    19    35 1   
    37    19    36 1   
    38    19    37 1   
    39    19    39 1   
    40    20    38 1   
    41    20    39 1   
@<TRIPOS>SUBSTRUCTURE
     1 V8B         1 TEMP              0 ****  ****    0 ROOT
