@<TRIPOS>MOLECULE
V8B
   39    41     1     0     0
SMALL
abcg2


@<TRIPOS>ATOM
      1 C1         -11.2230    16.0700     1.2120 ce         1 V8B       0.537900
      2 C2         -10.9390    15.5640    -0.1430 ca         1 V8B      -0.166900
      3 C3         -11.8200    15.8420    -1.1950 ca         1 V8B      -0.068500
      4 C7          -9.7960    14.8050    -0.4270 ca         1 V8B      -0.068500
      5 C10        -12.6140    17.2900     2.6750 c          1 V8B       0.735100
      6 C11        -10.2240    15.7200     2.2870 c6         1 V8B      -0.035700
      7 C13        -11.7390    17.0030     3.7780 cc         1 V8B      -0.289600
      8 C14        -11.7790    17.3390     5.1240 cd         1 V8B      -0.070000
      9 C15        -10.6450    16.7700     5.7280 cd         1 V8B      -0.193000
     10 C16         -9.9260    16.0930     4.7450 cc         1 V8B      -0.127300
     11 O17        -13.6380    17.9620     2.7860 o          1 V8B      -0.496100
     12 C20         -8.9500    14.8810    -4.7500 c3         1 V8B      -0.097100
     13 C21         -8.6590    15.3210     4.8340 c3         1 V8B      -0.031800
     14 C4         -11.5700    15.3790    -2.4760 ca         1 V8B      -0.113000
     15 C5         -10.4340    14.6190    -2.7580 ca         1 V8B      -0.081300
     16 C6          -9.5510    14.3450    -1.7100 ca         1 V8B      -0.113000
     17 N9         -12.2840    16.7740     1.4040 nf         1 V8B      -0.647100
     18 N12        -10.6020    16.2440     3.5750 na         1 V8B       0.038000
     19 C18         -9.8820    12.6070    -4.1720 c3         1 V8B      -0.097100
     20 O19        -11.2370    14.4020    -5.0530 oh         1 V8B      -0.659000
     21 H1         -12.7050    16.4290    -0.9960 ha         1 V8B       0.127500
     22 H2          -9.0820    14.5640     0.3480 ha         1 V8B       0.127500
     23 H3         -10.1270    14.6330     2.3410 h1         1 V8B       0.079200
     24 H4          -9.2450    16.1110     1.9970 h1         1 V8B       0.079200
     25 H5         -12.5490    17.9260     5.5980 ha         1 V8B       0.149000
     26 H6         -10.3610    16.8310     6.7660 ha         1 V8B       0.138000
     27 H7          -8.0610    14.7260    -4.1390 hc         1 V8B       0.046700
     28 H8          -8.7470    14.5280    -5.7630 hc         1 V8B       0.046700
     29 H9          -9.1680    15.9490    -4.7840 hc         1 V8B       0.046700
     30 H10         -7.8870    15.7440     4.1840 hc         1 V8B       0.050367
     31 H11         -8.2900    15.3310     5.8580 hc         1 V8B       0.050367
     32 H12         -8.8030    14.2800     4.5290 hc         1 V8B       0.050367
     33 H13        -12.2640    15.6140    -3.2700 ha         1 V8B       0.123500
     34 H14         -8.6550    13.7670    -1.8930 ha         1 V8B       0.123500
     35 H15        -10.7460    12.0740    -3.7700 hc         1 V8B       0.046700
     36 H16         -9.7060    12.2750    -5.1960 hc         1 V8B       0.046700
     37 H17         -9.0110    12.3490    -3.5700 hc         1 V8B       0.046700
     38 H18        -11.9870    13.8470    -4.8020 ho         1 V8B       0.443000
     39 C8         -10.1410    14.1170    -4.1710 c3         1 V8B       0.221300
@<TRIPOS>BOND
     1     1     2 1   
     2     1     6 1   
     3     1    17 2   
     4     2     3 ar  
     5     2     4 ar  
     6     3    14 ar  
     7     3    21 1   
     8     4    16 ar  
     9     4    22 1   
    10     5     7 1   
    11     5    11 2   
    12     5    17 1   
    13     6    18 1   
    14     6    23 1   
    15     6    24 1   
    16     7     8 2   
    17     7    18 1   
    18     8     9 1   
    19     8    25 1   
    20     9    10 2   
    21     9    26 1   
    22    10    13 1   
    23    10    18 1   
    24    12    27 1   
    25    12    28 1   
    26    12    29 1   
    27    12    39 1   
    28    13    30 1   
    29    13    31 1   
    30    13    32 1   
    31    14    15 ar  
    32    14    33 1   
    33    15    16 ar  
    34    15    39 1   
    35    16    34 1   
    36    19    35 1   
    37    19    36 1   
    38    19    37 1   
    39    19    39 1   
    40    20    38 1   
    41    20    39 1   
@<TRIPOS>SUBSTRUCTURE
     1 V8B         1 TEMP              0 ****  ****    0 ROOT
