@<TRIPOS>MOLECULE
V8C
   55    58     1     0     0
SMALL
abcg2


@<TRIPOS>ATOM
      1 C1          24.8380    41.3260    46.1370 c3         1 V8C       0.206850
      2 C2          25.8240    42.9010    44.5890 ca         1 V8C       0.427500
      3 C3          27.1040    42.5980    45.0920 ca         1 V8C      -0.270500
      4 C4          28.2110    43.2310    44.5760 ca         1 V8C       0.286500
      5 C5          28.1340    44.1810    43.5380 ca         1 V8C      -0.208500
      6 C6          26.8440    44.4690    43.0400 ca         1 V8C       0.050500
      7 C7          25.7310    43.8620    43.5350 ca         1 V8C      -0.227000
      8 O1          29.0470    46.8870    44.2810 o          1 V8C      -0.658500
      9 N           24.7240    42.3090    45.0790 nh         1 V8C      -0.796400
     10 C           23.4100    42.6470    44.5660 c3         1 V8C       0.206850
     11 O           29.3980    42.8980    45.1110 os         1 V8C      -0.280000
     12 C10         31.7890    44.9190    43.2460 ca         1 V8C       0.050500
     13 C11         32.9510    44.5040    43.8200 ca         1 V8C      -0.227000
     14 C12         32.9470    43.5220    44.8580 ca         1 V8C       0.427500
     15 C13         34.0750    42.1080    46.4650 c3         1 V8C       0.206850
     16 C14         35.3680    43.6580    44.9880 c3         1 V8C       0.206850
     17 C15         31.7050    43.0020    45.2700 ca         1 V8C      -0.270500
     18 C16         30.5460    43.4410    44.6710 ca         1 V8C       0.286500
     19 C17         29.2930    45.6710    41.8860 cc         1 V8C      -0.094000
     20 C18         29.3980    45.0500    40.6470 cc         1 V8C      -0.194000
     21 C19         29.4310    45.8100    39.4890 cd         1 V8C      -0.171000
     22 C20         29.3580    47.1990    39.5570 cd         1 V8C      -0.152200
     23 C21         29.2230    47.8060    40.8000 cc         1 V8C      -0.095000
     24 C22         29.1990    47.0570    41.9670 cc         1 V8C      -0.104000
     25 C23         29.0710    47.7030    43.3340 c          1 V8C       0.686000
     26 C24         29.3890    48.0750    38.3420 c          1 V8C       0.613300
     27 C8          29.3070    44.8150    43.0960 cd         1 V8C       0.340000
     28 C9          30.5350    44.4050    43.6440 ca         1 V8C      -0.208500
     29 N1          34.0960    43.1100    45.4190 nh         1 V8C      -0.796400
     30 N25         29.9820    47.5580    37.2540 nt         1 V8C      -0.609000
     31 O2          29.0020    48.9380    43.3900 o          1 V8C      -0.658500
     32 O26         28.8990    49.1940    38.3610 o          1 V8C      -0.590100
     33 H1          23.8500    40.9610    46.3970 h1         1 V8C       0.049033
     34 H2          25.4420    40.4700    45.8280 h1         1 V8C       0.049033
     35 H3          25.2840    41.7530    47.0380 h1         1 V8C       0.049033
     36 H4          27.2460    41.8780    45.8850 ha         1 V8C       0.138000
     37 H5          26.7370    45.1950    42.2440 ha         1 V8C       0.143000
     38 H6          24.7700    44.1230    43.1180 ha         1 V8C       0.128500
     39 H8          22.6610    42.0720    45.1000 h1         1 V8C       0.049033
     40 H9          23.1820    43.7050    44.7080 h1         1 V8C       0.049033
     41 H10         23.3160    42.4130    43.5040 h1         1 V8C       0.049033
     42 H11         31.8280    45.6660    42.4650 ha         1 V8C       0.143000
     43 H12         33.8800    44.9330    43.4760 ha         1 V8C       0.128500
     44 H13         35.0920    41.8910    46.7740 h1         1 V8C       0.049033
     45 H14         33.5220    42.4520    47.3420 h1         1 V8C       0.049033
     46 H15         33.6230    41.1760    46.1190 h1         1 V8C       0.049033
     47 H16         36.1660    43.1910    45.5550 h1         1 V8C       0.049033
     48 H17         35.5530    43.4650    43.9300 h1         1 V8C       0.049033
     49 H18         35.4240    44.7350    45.1580 h1         1 V8C       0.049033
     50 H19         31.6300    42.2580    46.0500 ha         1 V8C       0.138000
     51 H20         29.4530    43.9710    40.5810 ha         1 V8C       0.176000
     52 H21         29.4930    45.2960    38.5380 ha         1 V8C       0.175000
     53 H22         29.1480    48.8830    40.8720 ha         1 V8C       0.237000
     54 H23         30.0530    48.1160    36.4190 hn         1 V8C       0.310000
     55 H24         30.5190    46.7090    37.2770 hn         1 V8C       0.310000
@<TRIPOS>BOND
     1     1     9 1   
     2     1    33 1   
     3     1    34 1   
     4     1    35 1   
     5     2     3 ar  
     6     2     7 ar  
     7     2     9 1   
     8     3     4 ar  
     9     3    36 1   
    10     4     5 ar  
    11     4    11 1   
    12     5     6 ar  
    13     5    27 1   
    14     6     7 ar  
    15     6    37 1   
    16     7    38 1   
    17     8    25 1   
    18     9    10 1   
    19    10    39 1   
    20    10    40 1   
    21    10    41 1   
    22    11    18 1   
    23    12    13 ar  
    24    12    28 ar  
    25    12    42 1   
    26    13    14 ar  
    27    13    43 1   
    28    14    17 ar  
    29    14    29 1   
    30    15    29 1   
    31    15    44 1   
    32    15    45 1   
    33    15    46 1   
    34    16    29 1   
    35    16    47 1   
    36    16    48 1   
    37    16    49 1   
    38    17    18 ar  
    39    17    50 1   
    40    18    28 ar  
    41    19    20 1   
    42    19    24 1   
    43    19    27 2   
    44    20    21 2   
    45    20    51 1   
    46    21    22 1   
    47    21    52 1   
    48    22    23 2   
    49    22    26 1   
    50    23    24 1   
    51    23    53 1   
    52    24    25 2   
    53    25    31 1   
    54    26    30 1   
    55    26    32 2   
    56    27    28 1   
    57    30    54 1   
    58    30    55 1   
@<TRIPOS>SUBSTRUCTURE
     1 V8C         1 TEMP              0 ****  ****    0 ROOT
