@<TRIPOS>MOLECULE
V8C
   55    58     1     0     0
SMALL
No Charge or Current Charge


@<TRIPOS>ATOM
      1 C1          24.7150    41.2110    45.8940 c3         1 V8C       0.206850
      2 C2          25.8500    43.0950    44.6460 ca         1 V8C       0.427500
      3 C3          27.1030    42.8420    45.2140 ca         1 V8C      -0.270500
      4 C4          28.2600    43.4130    44.6730 ca         1 V8C       0.286500
      5 C5          28.1990    44.2710    43.5630 ca         1 V8C      -0.208500
      6 C6          26.9380    44.4870    42.9610 ca         1 V8C       0.050500
      7 C7          25.7800    43.9120    43.5080 ca         1 V8C      -0.227000
      8 O1          28.1650    47.1210    44.1590 o          1 V8C      -0.658500
      9 N           24.6790    42.5170    45.1930 nh         1 V8C      -0.796400
     10 C           23.3630    43.1920    45.0900 c3         1 V8C       0.206850
     11 O           29.4600    43.0720    45.2340 os         1 V8C      -0.280000
     12 C10         31.9870    44.7920    43.1840 ca         1 V8C       0.050500
     13 C11         33.1530    44.3020    43.7910 ca         1 V8C      -0.227000
     14 C12         33.0840    43.3830    44.8480 ca         1 V8C       0.427500
     15 C13         34.3090    41.5410    46.0730 c3         1 V8C       0.206850
     16 C14         35.5030    43.7010    45.5160 c3         1 V8C       0.206850
     17 C15         31.8250    42.9790    45.3030 ca         1 V8C      -0.270500
     18 C16         30.6590    43.4620    44.7000 ca         1 V8C       0.286500
     19 C17         29.4360    45.7040    41.9110 cc         1 V8C      -0.094000
     20 C18         30.1780    45.3020    40.7470 cc         1 V8C      -0.194000
     21 C19         30.1260    46.0150    39.5690 cd         1 V8C      -0.171000
     22 C20         29.3030    47.2040    39.4560 cd         1 V8C      -0.152200
     23 C21         28.5970    47.6170    40.5810 cc         1 V8C      -0.095000
     24 C22         28.6430    46.9200    41.8470 cc         1 V8C      -0.104000
     25 C23         27.9500    47.5440    43.0340 c          1 V8C       0.686000
     26 C24         29.1780    48.0230    38.2060 c          1 V8C       0.613300
     27 C8          29.4510    44.8530    43.0190 cd         1 V8C       0.340000
     28 C9          30.7140    44.3460    43.6080 ca         1 V8C      -0.208500
     29 N1          34.2620    42.8920    45.4610 nh         1 V8C      -0.796400
     30 N25         29.8840    47.5950    37.1370 nt         1 V8C      -0.609000
     31 O2          27.2360    48.5190    42.8440 o          1 V8C      -0.658500
     32 O26         28.4920    49.0270    38.1060 o          1 V8C      -0.590100
     33 H1          23.7360    40.7140    45.8450 h1         1 V8C       0.049033
     34 H2          25.4480    40.5400    45.4270 h1         1 V8C       0.049033
     35 H3          24.9830    41.3470    46.9500 h1         1 V8C       0.049033
     36 H4          27.1940    42.2000    46.0820 ha         1 V8C       0.138000
     37 H5          26.8370    45.0860    42.0590 ha         1 V8C       0.143000
     38 H6          24.8260    44.0950    43.0240 ha         1 V8C       0.128500
     39 H8          22.7060    42.8950    45.9180 h1         1 V8C       0.049033
     40 H9          23.4820    44.2830    45.1390 h1         1 V8C       0.049033
     41 H10         22.8690    42.9330    44.1440 h1         1 V8C       0.049033
     42 H11         32.0940    45.5340    42.3960 ha         1 V8C       0.143000
     43 H12         34.1160    44.6470    43.4280 ha         1 V8C       0.128500
     44 H13         35.3330    41.1430    46.0620 h1         1 V8C       0.049033
     45 H14         33.9610    41.5760    47.1140 h1         1 V8C       0.049033
     46 H15         33.6770    40.8390    45.5130 h1         1 V8C       0.049033
     47 H16         36.1290    43.4000    46.3660 h1         1 V8C       0.049033
     48 H17         36.0860    43.5760    44.5930 h1         1 V8C       0.049033
     49 H18         35.2660    44.7660    45.6420 h1         1 V8C       0.049033
     50 H19         31.7360    42.3020    46.1450 ha         1 V8C       0.138000
     51 H20         30.7530    44.3780    40.7790 ha         1 V8C       0.176000
     52 H21         30.6980    45.6500    38.7200 ha         1 V8C       0.175000
     53 H22         28.0010    48.5260    40.5250 ha         1 V8C       0.237000
     54 H23         29.8310    48.1140    36.2740 hn         1 V8C       0.310000
     55 H24         30.4550    46.7680    37.2040 hn         1 V8C       0.310000
@<TRIPOS>BOND
     1     1     9 1   
     2     1    33 1   
     3     1    34 1   
     4     1    35 1   
     5     2     3 ar  
     6     2     7 ar  
     7     2     9 1   
     8     3     4 ar  
     9     3    36 1   
    10     4     5 ar  
    11     4    11 1   
    12     5     6 ar  
    13     5    27 1   
    14     6     7 ar  
    15     6    37 1   
    16     7    38 1   
    17     8    25 1   
    18     9    10 1   
    19    10    39 1   
    20    10    40 1   
    21    10    41 1   
    22    11    18 1   
    23    12    13 ar  
    24    12    28 ar  
    25    12    42 1   
    26    13    14 ar  
    27    13    43 1   
    28    14    17 ar  
    29    14    29 1   
    30    15    29 1   
    31    15    44 1   
    32    15    45 1   
    33    15    46 1   
    34    16    29 1   
    35    16    47 1   
    36    16    48 1   
    37    16    49 1   
    38    17    18 ar  
    39    17    50 1   
    40    18    28 ar  
    41    19    20 1   
    42    19    24 1   
    43    19    27 2   
    44    20    21 2   
    45    20    51 1   
    46    21    22 1   
    47    21    52 1   
    48    22    23 2   
    49    22    26 1   
    50    23    24 1   
    51    23    53 1   
    52    24    25 2   
    53    25    31 1   
    54    26    30 1   
    55    26    32 2   
    56    27    28 1   
    57    30    54 1   
    58    30    55 1   
@<TRIPOS>SUBSTRUCTURE
     1 V8C         1 TEMP              0 ****  ****    0 ROOT
