@<TRIPOS>MOLECULE
V8D
   34    35     1     0     0
SMALL
abcg2


@<TRIPOS>ATOM
      1 C05        144.7350   130.9020   122.6270 c3         1 V8D       0.133600
      2 C06        144.4530   130.0740   121.3930 ca         1 V8D      -0.104300
      3 C07        143.4420   131.2210   123.3660 c3         1 V8D      -0.107100
      4 C08        147.0320   129.9920   123.2380 cc         1 V8D      -0.278600
      5 C09        145.4330   129.6320   124.6720 cc         1 V8D       0.410400
      6 C10        144.1600   130.7240   120.1980 ca         1 V8D      -0.089500
      7 C11        144.4120   128.6850   121.4330 ca         1 V8D      -0.089500
      8 C12        147.4850   129.2550   124.3060 cd         1 V8D       0.308900
      9 C13        147.7650   130.4830   122.0770 c          1 V8D       0.649700
     10 C14        143.8220   130.0000   119.0640 ca         1 V8D      -0.110500
     11 C15        144.0810   127.9580   120.2960 ca         1 V8D      -0.110500
     12 C16        143.7820   128.6120   119.1090 ca         1 V8D      -0.102000
     13 C17        149.8740   130.3970   121.0030 c3         1 V8D       0.169600
     14 C18        151.1970   129.7030   121.2130 c3         1 V8D      -0.098100
     15 N03        145.6990   130.2320   123.5000 na         1 V8D      -0.128500
     16 N04        146.4860   129.0420   125.1910 nd         1 V8D      -0.686000
     17 O01        148.9920   129.9820   122.0580 os         1 V8D      -0.440100
     18 O02        147.3330   131.2480   121.2470 o          1 V8D      -0.501000
     19 H1         145.1850   131.8450   122.3210 h1         1 V8D       0.093700
     20 H2         143.6230   131.8450   124.2420 hc         1 V8D       0.052033
     21 H3         142.7920   131.7760   122.6920 hc         1 V8D       0.052033
     22 H4         142.9050   130.3240   123.6710 hc         1 V8D       0.052033
     23 H5         144.4530   129.6420   125.1210 h5         1 V8D       0.059100
     24 H6         144.2000   131.8060   120.1520 ha         1 V8D       0.117000
     25 H7         144.6430   128.1530   122.3480 ha         1 V8D       0.117000
     26 H8         148.4850   128.8840   124.4720 h4         1 V8D       0.050100
     27 H9         143.5950   130.5200   118.1420 ha         1 V8D       0.114500
     28 H10        144.0560   126.8770   120.3420 ha         1 V8D       0.114500
     29 H11        143.5220   128.0460   118.2250 ha         1 V8D       0.114000
     30 H12        149.9940   131.4820   121.0290 h1         1 V8D       0.048700
     31 H13        149.4420   130.1290   120.0360 h1         1 V8D       0.048700
     32 H14        151.8860   130.0060   120.4250 hc         1 V8D       0.047367
     33 H15        151.6440   129.9710   122.1690 hc         1 V8D       0.047367
     34 H16        151.0930   128.6190   121.1660 hc         1 V8D       0.047367
@<TRIPOS>BOND
     1     1     2 1   
     2     1     3 1   
     3     1    15 1   
     4     1    19 1   
     5     2     6 ar  
     6     2     7 ar  
     7     3    20 1   
     8     3    21 1   
     9     3    22 1   
    10     4     8 2   
    11     4     9 1   
    12     4    15 1   
    13     5    15 1   
    14     5    16 2   
    15     5    23 1   
    16     6    10 ar  
    17     6    24 1   
    18     7    11 ar  
    19     7    25 1   
    20     8    16 1   
    21     8    26 1   
    22     9    17 1   
    23     9    18 2   
    24    10    12 ar  
    25    10    27 1   
    26    11    12 ar  
    27    11    28 1   
    28    12    29 1   
    29    13    14 1   
    30    13    17 1   
    31    13    30 1   
    32    13    31 1   
    33    14    32 1   
    34    14    33 1   
    35    14    34 1   
@<TRIPOS>SUBSTRUCTURE
     1 V8D         1 TEMP              0 ****  ****    0 ROOT
