@<TRIPOS>MOLECULE
V8D
   34    35     1     0     0
SMALL
No Charge or Current Charge


@<TRIPOS>ATOM
      1 C05        144.7460   130.7780   122.5530 c3         1 V8D       0.133600
      2 C06        144.2130   129.9740   121.3660 ca         1 V8D      -0.104300
      3 C07        143.5890   131.3330   123.4150 c3         1 V8D      -0.107100
      4 C08        147.1070   129.9200   123.0760 cc         1 V8D      -0.278600
      5 C09        145.4960   129.2410   124.4520 cc         1 V8D       0.410400
      6 C10        144.3380   130.4830   120.0570 ca         1 V8D      -0.089500
      7 C11        143.5920   128.7210   121.5590 ca         1 V8D      -0.089500
      8 C12        147.6110   129.1000   124.0520 cd         1 V8D       0.308900
      9 C13        147.9520   130.5060   122.0170 c          1 V8D       0.649700
     10 C14        143.8530   129.7520   118.9590 ca         1 V8D      -0.110500
     11 C15        143.1070   127.9910   120.4600 ca         1 V8D      -0.110500
     12 C16        143.2380   128.5050   119.1590 ca         1 V8D      -0.102000
     13 C17        150.1860   130.6630   121.1270 c3         1 V8D       0.169600
     14 C18        151.5810   130.1120   121.4640 c3         1 V8D      -0.098100
     15 N03        145.7460   130.0170   123.3360 na         1 V8D      -0.128500
     16 N04        146.6090   128.6820   124.9040 nd         1 V8D      -0.686000
     17 O01        149.2730   130.1490   122.1110 os         1 V8D      -0.440100
     18 O02        147.5220   131.2400   121.1390 o          1 V8D      -0.501000
     19 H1         145.2650   131.6590   122.1560 h1         1 V8D       0.093700
     20 H2         143.9800   131.9300   124.2480 hc         1 V8D       0.052033
     21 H3         142.9430   131.9800   122.8090 hc         1 V8D       0.052033
     22 H4         142.9700   130.5260   123.8240 hc         1 V8D       0.052033
     23 H5         144.5050   129.1240   124.8750 h5         1 V8D       0.059100
     24 H6         144.8150   131.4460   119.8870 ha         1 V8D       0.117000
     25 H7         143.4800   128.3100   122.5590 ha         1 V8D       0.117000
     26 H8         148.6370   128.7800   124.1940 h4         1 V8D       0.050100
     27 H9         143.9560   130.1520   117.9530 ha         1 V8D       0.114500
     28 H10        142.6290   127.0260   120.6170 ha         1 V8D       0.114500
     29 H11        142.8630   127.9400   118.3090 ha         1 V8D       0.114000
     30 H12        150.2110   131.7600   121.1500 h1         1 V8D       0.048700
     31 H13        149.8990   130.3400   120.1180 h1         1 V8D       0.048700
     32 H14        152.3180   130.4760   120.7390 hc         1 V8D       0.047367
     33 H15        151.8930   130.4350   122.4640 hc         1 V8D       0.047367
     34 H16        151.5810   129.0160   121.4330 hc         1 V8D       0.047367
@<TRIPOS>BOND
     1     1     2 1   
     2     1     3 1   
     3     1    15 1   
     4     1    19 1   
     5     2     6 ar  
     6     2     7 ar  
     7     3    20 1   
     8     3    21 1   
     9     3    22 1   
    10     4     8 2   
    11     4     9 1   
    12     4    15 1   
    13     5    15 1   
    14     5    16 2   
    15     5    23 1   
    16     6    10 ar  
    17     6    24 1   
    18     7    11 ar  
    19     7    25 1   
    20     8    16 1   
    21     8    26 1   
    22     9    17 1   
    23     9    18 2   
    24    10    12 ar  
    25    10    27 1   
    26    11    12 ar  
    27    11    28 1   
    28    12    29 1   
    29    13    14 1   
    30    13    17 1   
    31    13    30 1   
    32    13    31 1   
    33    14    32 1   
    34    14    33 1   
    35    14    34 1   
@<TRIPOS>SUBSTRUCTURE
     1 V8D         1 TEMP              0 ****  ****    0 ROOT
