@<TRIPOS>MOLECULE
V8E
   32    32     1     0     0
SMALL
No Charge or Current Charge


@<TRIPOS>ATOM
      1 N1          31.2080    10.6820    43.0140 n3         1 V8E      -0.687600
      2 C7          33.5370     9.7570    43.3380 c6         1 V8E       0.083500
      3 C8          29.7280    10.4380    43.0900 c3         1 V8E       0.025800
      4 C9          29.1240     9.2280    42.2890 c          1 V8E       0.712000
      5 O1          28.9260     8.1750    42.8840 o          1 V8E      -0.728500
      6 C1          37.4880    12.7600    44.6490 c3         1 V8E      -0.065400
      7 C5          31.6150    11.9130    43.7380 c6         1 V8E       0.157300
      8 C6          32.0100     9.5350    43.5160 c6         1 V8E       0.157300
      9 C4          33.1270    12.2320    43.5750 c6         1 V8E       0.083500
     10 C3          35.4490    11.2730    43.9360 c          1 V8E       0.594100
     11 C2          35.9640    12.6550    44.3980 c3         1 V8E      -0.152400
     12 O2          28.8570     9.3840    41.1030 o          1 V8E      -0.728500
     13 N           34.0520    11.0780    43.8160 n          1 V8E      -0.407800
     14 O           36.2270    10.3490    43.7280 o          1 V8E      -0.637100
     15 C           37.9240    14.1630    45.1140 c3         1 V8E      -0.091100
     16 H2          34.0640     8.9470    43.8610 h1         1 V8E       0.044700
     17 H3          33.7790     9.6630    42.2700 h1         1 V8E       0.044700
     18 H4          29.2030    11.3360    42.7380 h1         1 V8E       0.014700
     19 H5          29.4380    10.3070    44.1420 h1         1 V8E       0.014700
     20 H7          38.0280    12.5070    43.7270 hc         1 V8E       0.052200
     21 H8          37.7850    12.0250    45.4070 hc         1 V8E       0.052200
     22 H9          31.0370    12.7780    43.3800 h1         1 V8E       0.047200
     23 H10         31.3950    11.8080    44.8110 h1         1 V8E       0.047200
     24 H11         31.8020     9.3680    44.5840 h1         1 V8E       0.047200
     25 H12         31.7350     8.6090    42.9890 h1         1 V8E       0.047200
     26 H13         33.3650    13.0580    44.2590 h1         1 V8E       0.044700
     27 H14         33.2980    12.5980    42.5530 h1         1 V8E       0.044700
     28 H15         35.6300    13.4010    43.6690 hc         1 V8E       0.052200
     29 H16         35.3900    12.9480    45.2850 hc         1 V8E       0.052200
     30 H17         39.0070    14.1920    45.2780 hc         1 V8E       0.027033
     31 H18         37.6710    14.9180    44.3590 hc         1 V8E       0.027033
     32 H19         37.4260    14.4320    46.0530 hc         1 V8E       0.027033
@<TRIPOS>BOND
     1     1     3 1   
     2     1     7 1   
     3     1     8 1   
     4     2     8 1   
     5     2    13 1   
     6     2    16 1   
     7     2    17 1   
     8     3     4 1   
     9     3    18 1   
    10     3    19 1   
    11     4     5 1   
    12     4    12 1   
    13     6    11 1   
    14     6    15 1   
    15     6    20 1   
    16     6    21 1   
    17     7     9 1   
    18     7    22 1   
    19     7    23 1   
    20     8    24 1   
    21     8    25 1   
    22     9    13 1   
    23     9    26 1   
    24     9    27 1   
    25    10    11 1   
    26    10    13 1   
    27    10    14 2   
    28    11    28 1   
    29    11    29 1   
    30    15    30 1   
    31    15    31 1   
    32    15    32 1   
@<TRIPOS>SUBSTRUCTURE
     1 V8E         1 TEMP              0 ****  ****    0 ROOT
