@<TRIPOS>MOLECULE
V8E
   32    32     1     0     0
SMALL
abcg2


@<TRIPOS>ATOM
      1 N1          31.1930    10.8590    42.9500 n3         1 V8E      -0.687600
      2 C7          33.3450     9.8110    43.6950 c6         1 V8E       0.083500
      3 C8          29.9880    10.2230    43.4570 c3         1 V8E       0.025800
      4 C9          29.1730     9.3730    42.4550 c          1 V8E       0.712000
      5 O1          28.2470     8.7000    42.9810 o          1 V8E      -0.728500
      6 C1          37.3390    12.6340    44.6460 c3         1 V8E      -0.065400
      7 C5          31.6500    11.9050    43.8680 c6         1 V8E       0.157300
      8 C6          32.2670     9.9050    42.6230 c6         1 V8E       0.157300
      9 C4          33.0970    12.2820    43.6080 c6         1 V8E       0.083500
     10 C3          35.2480    11.2210    44.2790 c          1 V8E       0.594100
     11 C2          35.8390    12.6180    44.3800 c3         1 V8E      -0.152400
     12 O2          29.4540     9.4240    41.2340 o          1 V8E      -0.728500
     13 N           33.9590    11.1280    43.8850 n          1 V8E      -0.407800
     14 O           35.9170    10.2150    44.5440 o          1 V8E      -0.637100
     15 C           37.8820    14.0570    44.7490 c3         1 V8E      -0.091100
     16 H2          32.9250     9.4480    44.6390 h1         1 V8E       0.044700
     17 H3          34.1190     9.1090    43.3910 h1         1 V8E       0.044700
     18 H4          29.3130    11.0120    43.8030 h1         1 V8E       0.014700
     19 H5          30.1920     9.5930    44.3390 h1         1 V8E       0.014700
     20 H7          37.8550    12.0970    43.8460 hc         1 V8E       0.052200
     21 H8          37.5500    12.0880    45.5680 hc         1 V8E       0.052200
     22 H9          31.0200    12.7900    43.7490 h1         1 V8E       0.047200
     23 H10         31.5640    11.5890    44.9210 h1         1 V8E       0.047200
     24 H11         31.8310     8.9200    42.4650 h1         1 V8E       0.047200
     25 H12         32.7410    10.1940    41.6800 h1         1 V8E       0.047200
     26 H13         33.3650    13.1090    44.2600 h1         1 V8E       0.044700
     27 H14         33.2210    12.6160    42.5720 h1         1 V8E       0.044700
     28 H15         35.6170    13.1670    43.4610 hc         1 V8E       0.052200
     29 H16         35.3170    13.1560    45.1800 hc         1 V8E       0.052200
     30 H17         38.9570    14.0560    44.9380 hc         1 V8E       0.027033
     31 H18         37.7040    14.6150    43.8260 hc         1 V8E       0.027033
     32 H19         37.4000    14.6030    45.5640 hc         1 V8E       0.027033
@<TRIPOS>BOND
     1     1     3 1   
     2     1     7 1   
     3     1     8 1   
     4     2     8 1   
     5     2    13 1   
     6     2    16 1   
     7     2    17 1   
     8     3     4 1   
     9     3    18 1   
    10     3    19 1   
    11     4     5 1   
    12     4    12 1   
    13     6    11 1   
    14     6    15 1   
    15     6    20 1   
    16     6    21 1   
    17     7     9 1   
    18     7    22 1   
    19     7    23 1   
    20     8    24 1   
    21     8    25 1   
    22     9    13 1   
    23     9    26 1   
    24     9    27 1   
    25    10    11 1   
    26    10    13 1   
    27    10    14 2   
    28    11    28 1   
    29    11    29 1   
    30    15    30 1   
    31    15    31 1   
    32    15    32 1   
@<TRIPOS>SUBSTRUCTURE
     1 V8E         1 TEMP              0 ****  ****    0 ROOT
