@<TRIPOS>MOLECULE
V8G
   32    32     1     0     0
SMALL
No Charge or Current Charge


@<TRIPOS>ATOM
      1 CAB        -30.3420    10.1130    27.9380 c6         1 V8G      -0.054900
      2 CAC        -30.1290     9.4010    26.5810 c6         1 V8G      -0.067400
      3 CAD        -31.8020    11.8980    29.1020 c          1 V8G       0.718000
      4 CAE        -31.1730    11.4260    27.7640 c6         1 V8G      -0.189700
      5 CAF        -31.4810     8.9370    25.9440 c6         1 V8G      -0.055700
      6 CAG        -31.3730     8.8060    24.3930 c3         1 V8G      -0.072400
      7 CAH        -30.3050     7.8000    23.8930 c3         1 V8G      -0.074400
      8 CAI        -30.3030     7.5800    22.3620 c3         1 V8G      -0.072400
      9 CAJ        -29.9140     8.8250    21.5390 c3         1 V8G      -0.087100
     10 CAL        -32.2230    11.3180    26.6090 c6         1 V8G      -0.054900
     11 CAM        -32.6720     9.8560    26.3700 c6         1 V8G      -0.067400
     12 OAA        -32.6430    11.1910    29.6390 o          1 V8G      -0.738500
     13 OAK        -31.4300    12.9680    29.5610 o          1 V8G      -0.738500
     14 H1         -30.8520     9.4220    28.6250 hc         1 V8G       0.033200
     15 H2         -29.3730    10.3440    28.4010 hc         1 V8G       0.033200
     16 H3         -29.4650     8.5370    26.7150 hc         1 V8G       0.024450
     17 H4         -29.6050    10.0890    25.9020 hc         1 V8G       0.024450
     18 H5         -30.4650    12.2110    27.4630 hc         1 V8G       0.025700
     19 H6         -31.7050     7.9270    26.3160 hc         1 V8G       0.028700
     20 H7         -31.1670     9.7920    23.9600 hc         1 V8G       0.031200
     21 H8         -32.3440     8.4930    23.9890 hc         1 V8G       0.031200
     22 H9         -30.4770     6.8330    24.3810 hc         1 V8G       0.035700
     23 H10        -29.3070     8.1340    24.2030 hc         1 V8G       0.035700
     24 H11        -31.2920     7.2290    22.0420 hc         1 V8G       0.026700
     25 H12        -29.5960     6.7740    22.1270 hc         1 V8G       0.026700
     26 H13        -29.8510     8.5720    20.4740 hc         1 V8G       0.028033
     27 H14        -30.6580     9.6220    21.6520 hc         1 V8G       0.028033
     28 H15        -28.9380     9.2110    21.8560 hc         1 V8G       0.028033
     29 H16        -31.7880    11.7120    25.6800 hc         1 V8G       0.033200
     30 H17        -33.0940    11.9520    26.8250 hc         1 V8G       0.033200
     31 H18        -33.4720     9.8270    25.6180 hc         1 V8G       0.024450
     32 H19        -33.1210     9.4650    27.2930 hc         1 V8G       0.024450
@<TRIPOS>BOND
     1     1     2 1   
     2     1     4 1   
     3     1    14 1   
     4     1    15 1   
     5     2     5 1   
     6     2    16 1   
     7     2    17 1   
     8     3     4 1   
     9     3    12 1   
    10     3    13 1   
    11     4    10 1   
    12     4    18 1   
    13     5     6 1   
    14     5    11 1   
    15     5    19 1   
    16     6     7 1   
    17     6    20 1   
    18     6    21 1   
    19     7     8 1   
    20     7    22 1   
    21     7    23 1   
    22     8     9 1   
    23     8    24 1   
    24     8    25 1   
    25     9    26 1   
    26     9    27 1   
    27     9    28 1   
    28    10    11 1   
    29    10    29 1   
    30    10    30 1   
    31    11    31 1   
    32    11    32 1   
@<TRIPOS>SUBSTRUCTURE
     1 V8G         1 TEMP              0 ****  ****    0 ROOT
