@<TRIPOS>MOLECULE
V8G
   32    32     1     0     0
SMALL
bcc


@<TRIPOS>ATOM
      1 CAB        -30.3530    10.0490    27.8970 c6         1 V8G      -0.054900
      2 CAC        -30.1490     9.3820    26.5420 c6         1 V8G      -0.067400
      3 CAD        -31.8760    11.7960    29.0530 c          1 V8G       0.928600
      4 CAE        -31.1120    11.3740    27.7710 c6         1 V8G      -0.189700
      5 CAF        -31.4920     8.9470    25.9290 c6         1 V8G      -0.055700
      6 CAG        -31.4040     8.8260    24.4080 c3         1 V8G      -0.072400
      7 CAH        -30.3630     7.8230    23.9250 c3         1 V8G      -0.074400
      8 CAI        -30.3560     7.6160    22.4120 c3         1 V8G      -0.072400
      9 CAJ        -29.9180     8.8440    21.6240 c3         1 V8G      -0.087100
     10 CAL        -32.0600    11.3290    26.5530 c6         1 V8G      -0.054900
     11 CAM        -32.6090     9.9230    26.3490 c6         1 V8G      -0.067400
     12 OAA        -31.9740    10.9720    29.9850 o          1 V8G      -0.843800
     13 OAK        -32.3440    12.9550    29.0440 o          1 V8G      -0.843800
     14 H1         -30.9070     9.3670    28.5470 hc         1 V8G       0.033200
     15 H2         -29.3910    10.2120    28.3890 hc         1 V8G       0.033200
     16 H3         -29.4830     8.5220    26.6390 hc         1 V8G       0.024450
     17 H4         -29.6420    10.0770    25.8600 hc         1 V8G       0.024450
     18 H5         -30.3830    12.1710    27.5790 hc         1 V8G       0.025700
     19 H6         -31.7390     7.9550    26.3270 hc         1 V8G       0.028700
     20 H7         -31.1980     9.8180    23.9890 hc         1 V8G       0.031200
     21 H8         -32.3840     8.5300    24.0160 hc         1 V8G       0.031200
     22 H9         -30.5520     6.8630    24.4160 hc         1 V8G       0.035700
     23 H10        -29.3630     8.1350    24.2440 hc         1 V8G       0.035700
     24 H11        -31.3530     7.3060    22.0850 hc         1 V8G       0.026700
     25 H12        -29.6880     6.7840    22.1720 hc         1 V8G       0.026700
     26 H13        -29.8860     8.6370    20.5540 hc         1 V8G       0.028033
     27 H14        -30.5930     9.6870    21.7730 hc         1 V8G       0.028033
     28 H15        -28.9190     9.1670    21.9270 hc         1 V8G       0.028033
     29 H16        -31.5240    11.6340    25.6490 hc         1 V8G       0.033200
     30 H17        -32.8660    12.0540    26.6780 hc         1 V8G       0.033200
     31 H18        -33.4050     9.9240    25.6000 hc         1 V8G       0.024450
     32 H19        -33.0750     9.5840    27.2800 hc         1 V8G       0.024450
@<TRIPOS>BOND
     1     1     2 1   
     2     1     4 1   
     3     1    14 1   
     4     1    15 1   
     5     2     5 1   
     6     2    16 1   
     7     2    17 1   
     8     3     4 1   
     9     3    12 1   
    10     3    13 1   
    11     4    10 1   
    12     4    18 1   
    13     5     6 1   
    14     5    11 1   
    15     5    19 1   
    16     6     7 1   
    17     6    20 1   
    18     6    21 1   
    19     7     8 1   
    20     7    22 1   
    21     7    23 1   
    22     8     9 1   
    23     8    24 1   
    24     8    25 1   
    25     9    26 1   
    26     9    27 1   
    27     9    28 1   
    28    10    11 1   
    29    10    29 1   
    30    10    30 1   
    31    11    31 1   
    32    11    32 1   
@<TRIPOS>SUBSTRUCTURE
     1 V8G         1 TEMP              0 ****  ****    0 ROOT
