@<TRIPOS>MOLECULE
V8L
   21    21     1     0     0
SMALL
abcg2


@<TRIPOS>ATOM
      1 N1           9.9860     0.2430    -9.0240 nu         1 V8L      -0.690200
      2 C7          11.4930    -0.0620   -10.8810 ca         1 V8L      -0.155500
      3 C1           8.5030     1.5970    -7.6980 c          1 V8L       0.617100
      4 C5          11.4550     1.4370   -12.7760 ca         1 V8L      -0.139000
      5 C6          11.9980     0.3390   -12.1100 ca         1 V8L      -0.077500
      6 C4          10.3970     2.1260   -12.1930 ca         1 V8L      -0.077500
      7 C3           9.8830     1.7350   -10.9600 ca         1 V8L      -0.155500
      8 C2          10.4320     0.6370   -10.2940 ca         1 V8L       0.252000
      9 O            7.3560     1.9520    -7.4380 o          1 V8L      -0.600100
     10 C            9.7170     2.1790    -7.0240 c3         1 V8L      -0.160100
     11 N            8.7200     0.6280    -8.6260 ns         1 V8L      -0.378300
     12 H1          10.1960    -0.7150    -8.7790 hn         1 V8L       0.472000
     13 H2          11.9160    -0.9180   -10.3690 ha         1 V8L       0.118000
     14 H3          11.8480     1.7450   -13.7360 ha         1 V8L       0.117000
     15 H4          12.8180    -0.2130   -12.5510 ha         1 V8L       0.114500
     16 H5           9.9620     2.9790   -12.6980 ha         1 V8L       0.114500
     17 H6           9.0610     2.2800   -10.5190 ha         1 V8L       0.118000
     18 H7           9.3880     2.9190    -6.2980 hc         1 V8L       0.065367
     19 H8          10.2920     1.3980    -6.5250 hc         1 V8L       0.065367
     20 H9          10.3740     2.6480    -7.7580 hc         1 V8L       0.065367
     21 H10          7.9170     0.2810    -9.1420 hn         1 V8L       0.313500
@<TRIPOS>BOND
     1     1     8 1   
     2     1    11 1   
     3     1    12 1   
     4     2     5 ar  
     5     2     8 ar  
     6     2    13 1   
     7     3     9 2   
     8     3    10 1   
     9     3    11 1   
    10     4     5 ar  
    11     4     6 ar  
    12     4    14 1   
    13     5    15 1   
    14     6     7 ar  
    15     6    16 1   
    16     7     8 ar  
    17     7    17 1   
    18    10    18 1   
    19    10    19 1   
    20    10    20 1   
    21    11    21 1   
@<TRIPOS>SUBSTRUCTURE
     1 V8L         1 TEMP              0 ****  ****    0 ROOT
