@<TRIPOS>MOLECULE
V8L
   21    21     1     0     0
SMALL
No Charge or Current Charge


@<TRIPOS>ATOM
      1 N1           9.9560     0.3160    -9.1050 nu         1 V8L      -0.690200
      2 C7          11.5210    -0.0480   -10.9170 ca         1 V8L      -0.155500
      3 C1           8.4230     1.5810    -7.5530 c          1 V8L       0.617100
      4 C5          11.4980     1.3760   -12.8910 ca         1 V8L      -0.139000
      5 C6          12.0440     0.2960   -12.1770 ca         1 V8L      -0.077500
      6 C4          10.4330     2.1120   -12.3450 ca         1 V8L      -0.077500
      7 C3           9.9130     1.7650   -11.0860 ca         1 V8L      -0.155500
      8 C2          10.4510     0.6800   -10.3660 ca         1 V8L       0.252000
      9 O            7.2830     1.8400    -7.1940 o          1 V8L      -0.600100
     10 C            9.6470     2.1630    -6.8430 c3         1 V8L      -0.160100
     11 N            8.6500     0.7410    -8.6430 ns         1 V8L      -0.378300
     12 H1          10.2930    -0.5640    -8.6920 hn         1 V8L       0.472000
     13 H2          11.9500    -0.8830   -10.3700 ha         1 V8L       0.118000
     14 H3          11.9020     1.6430   -13.8650 ha         1 V8L       0.117000
     15 H4          12.8700    -0.2730   -12.5970 ha         1 V8L       0.114500
     16 H5          10.0120     2.9500   -12.8970 ha         1 V8L       0.114500
     17 H6           9.0930     2.3460   -10.6730 ha         1 V8L       0.118000
     18 H7           9.3770     2.8310    -6.0180 hc         1 V8L       0.065367
     19 H8          10.2870     1.3420    -6.5020 hc         1 V8L       0.065367
     20 H9          10.2830     2.6660    -7.5800 hc         1 V8L       0.065367
     21 H10          7.8260     0.3370    -9.0860 hn         1 V8L       0.313500
@<TRIPOS>BOND
     1     1     8 1   
     2     1    11 1   
     3     1    12 1   
     4     2     5 ar  
     5     2     8 ar  
     6     2    13 1   
     7     3     9 2   
     8     3    10 1   
     9     3    11 1   
    10     4     5 ar  
    11     4     6 ar  
    12     4    14 1   
    13     5    15 1   
    14     6     7 ar  
    15     6    16 1   
    16     7     8 ar  
    17     7    17 1   
    18    10    18 1   
    19    10    19 1   
    20    10    20 1   
    21    11    21 1   
@<TRIPOS>SUBSTRUCTURE
     1 V8L         1 TEMP              0 ****  ****    0 ROOT
