@<TRIPOS>MOLECULE
V8M
   52    54     1     0     0
SMALL
bcc


@<TRIPOS>ATOM
      1 C10        -23.4770    10.1060   -15.4970 c3         1 V8M      -0.080400
      2 C13        -20.6920    11.5840   -17.8440 c5         1 V8M       0.098700
      3 C15        -18.9850    12.9520   -17.0010 c          1 V8M       0.823500
      4 C22        -28.6800     4.6850   -16.9270 ca         1 V8M      -0.015000
      5 C28        -27.8380     2.1430   -16.2320 ca         1 V8M      -0.183000
      6 C02        -27.4900     3.2370   -15.4370 ca         1 V8M       0.193100
      7 C03        -27.9160     4.5310   -15.7810 ca         1 V8M      -0.189300
      8 C04        -27.5200     5.7440   -14.9850 c3         1 V8M      -0.059100
      9 C05        -26.1450     6.2680   -15.4190 c3         1 V8M       0.103000
     10 C07        -26.0900     8.6550   -14.8530 c          1 V8M       0.664100
     11 C09        -24.6620    10.7230   -14.7650 c3         1 V8M      -0.067400
     12 C11        -22.6360    11.1530   -16.2180 c3         1 V8M      -0.058400
     13 C12        -21.5140    10.5590   -17.0500 c5         1 V8M       0.025400
     14 C18        -19.3080    10.9530   -18.1860 c5         1 V8M       0.103700
     15 C19        -19.2000     9.5900   -17.4930 c5         1 V8M      -0.017300
     16 C23        -29.0170     3.5900   -17.7110 ca         1 V8M      -0.224200
     17 C27        -28.5980     2.3110   -17.3670 ca         1 V8M      -0.023000
     18 N06        -25.6890     7.3900   -14.6370 ns         1 V8M      -0.579900
     19 N14        -20.3290    12.7420   -17.0680 ns         1 V8M      -0.581900
     20 N16        -18.3880    11.9340   -17.6730 ns         1 V8M      -0.590900
     21 N24        -29.8160     3.7830   -18.8980 no         1 V8M       0.321200
     22 O21        -26.8890     8.9530   -15.7320 o          1 V8M      -0.600100
     23 O25        -30.1730     4.9070   -19.1750 o          1 V8M      -0.213000
     24 O26        -30.0920     2.8110   -19.5650 o          1 V8M      -0.213000
     25 S20        -20.2820     9.6670   -16.0430 ss         1 V8M      -0.319200
     26 H102       -22.8570     9.5570   -14.7800 hc         1 V8M       0.047200
     27 H101       -23.8290     9.3690   -16.2250 hc         1 V8M       0.047200
     28 H131       -21.2430    11.8680   -18.7450 h1         1 V8M       0.064700
     29 H221       -29.0100     5.6780   -17.2000 ha         1 V8M       0.175000
     30 H281       -27.5030     1.1540   -15.9460 ha         1 V8M       0.161000
     31 H042       -28.2630     6.5270   -15.1370 hc         1 V8M       0.061700
     32 H041       -27.5170     5.5470   -13.9080 hc         1 V8M       0.061700
     33 H052       -25.3950     5.4820   -15.3280 h1         1 V8M       0.056700
     34 H051       -26.1840     6.5480   -16.4730 h1         1 V8M       0.056700
     35 H091       -24.3040    11.4970   -14.0820 hc         1 V8M       0.054200
     36 H092       -25.3200    11.2230   -15.4790 hc         1 V8M       0.054200
     37 H112       -23.2820    11.7310   -16.8870 hc         1 V8M       0.054200
     38 H111       -22.2230    11.8580   -15.4930 hc         1 V8M       0.054200
     39 H121       -21.9380     9.8450   -17.7650 h1         1 V8M       0.071700
     40 H181       -19.1780    10.8220   -19.2620 h1         1 V8M       0.071700
     41 H191       -18.1770     9.3630   -17.1930 h1         1 V8M       0.077700
     42 H192       -19.5410     8.7990   -18.1630 h1         1 V8M       0.077700
     43 H271       -28.8570     1.4530   -17.9700 ha         1 V8M       0.172000
     44 H061       -25.0520     7.2060   -13.8790 hn         1 V8M       0.314500
     45 H141       -20.9710    13.4980   -16.9050 hn         1 V8M       0.337500
     46 H161       -17.3970    11.7720   -17.6180 hn         1 V8M       0.342500
     47 H011       -26.5700     3.7570   -13.8300 ho         1 V8M       0.438000
     48 O17        -18.4250    13.8850   -16.4480 o          1 V8M      -0.650500
     49 C08        -25.4650     9.7030   -13.9570 c3         1 V8M      -0.155400
     50 O01        -26.7450     2.9700   -14.3600 oh         1 V8M      -0.485100
     51 H081       -26.2720    10.2130   -13.4250 hc         1 V8M       0.060200
     52 H082       -24.8230     9.2480   -13.1990 hc         1 V8M       0.060200
@<TRIPOS>BOND
     1     1    11 1   
     2     1    12 1   
     3     1    26 1   
     4     1    27 1   
     5     2    13 1   
     6     2    14 1   
     7     2    19 1   
     8     2    28 1   
     9     3    19 1   
    10     3    20 1   
    11     3    48 2   
    12     4     7 ar  
    13     4    16 ar  
    14     4    29 1   
    15     5     6 ar  
    16     5    17 ar  
    17     5    30 1   
    18     6     7 ar  
    19     6    50 1   
    20     7     8 1   
    21     8     9 1   
    22     8    31 1   
    23     8    32 1   
    24     9    18 1   
    25     9    33 1   
    26     9    34 1   
    27    10    18 1   
    28    10    22 2   
    29    10    49 1   
    30    11    35 1   
    31    11    36 1   
    32    11    49 1   
    33    12    13 1   
    34    12    37 1   
    35    12    38 1   
    36    13    25 1   
    37    13    39 1   
    38    14    15 1   
    39    14    20 1   
    40    14    40 1   
    41    15    25 1   
    42    15    41 1   
    43    15    42 1   
    44    16    17 ar  
    45    16    21 1   
    46    17    43 1   
    47    18    44 1   
    48    19    45 1   
    49    20    46 1   
    50    21    23 1   
    51    21    24 1   
    52    47    50 1   
    53    49    51 1   
    54    49    52 1   
@<TRIPOS>SUBSTRUCTURE
     1 V8M         1 TEMP              0 ****  ****    0 ROOT
