@<TRIPOS>MOLECULE
V8M
   52    54     1     0     0
SMALL
No Charge or Current Charge


@<TRIPOS>ATOM
      1 C10        -23.4830    10.1530   -15.5180 c3         1 V8M      -0.080400
      2 C13        -20.6080    11.5860   -17.9500 c5         1 V8M       0.098700
      3 C15        -18.9770    12.9500   -16.9440 c          1 V8M       0.614000
      4 C22        -28.7970     4.6110   -16.8500 ca         1 V8M       0.003000
      5 C28        -27.8390     2.0410   -16.2680 ca         1 V8M      -0.165000
      6 C02        -27.3960     3.1350   -15.5150 ca         1 V8M       0.193100
      7 C03        -27.8730     4.4340   -15.7980 ca         1 V8M      -0.189300
      8 C04        -27.4110     5.6650   -15.0130 c3         1 V8M      -0.059100
      9 C05        -26.1160     6.2710   -15.5940 c3         1 V8M       0.103000
     10 C07        -26.2000     8.7010   -14.9320 c          1 V8M       0.597100
     11 C09        -24.7040    10.7780   -14.8020 c3         1 V8M      -0.067400
     12 C11        -22.6150    11.1980   -16.2570 c3         1 V8M      -0.058400
     13 C12        -21.4060    10.5960   -17.0230 c5         1 V8M       0.073300
     14 C18        -19.1690    10.9690   -18.1950 c5         1 V8M       0.103700
     15 C19        -19.0230     9.6770   -17.3220 c5         1 V8M       0.030600
     16 C23        -29.2480     3.5090   -17.6120 ca         1 V8M      -0.224200
     17 C27        -28.7610     2.2170   -17.3120 ca         1 V8M      -0.005000
     18 N06        -25.6580     7.4380   -14.8350 ns         1 V8M      -0.512900
     19 N14        -20.3010    12.7830   -17.1570 ns         1 V8M      -0.514900
     20 N16        -18.2940    11.9550   -17.5550 ns         1 V8M      -0.523900
     21 N24        -30.2280     3.7070   -18.7260 no         1 V8M       0.701200
     22 O21        -27.1380     8.9560   -15.6730 o          1 V8M      -0.600100
     23 O25        -30.6280     4.8560   -18.9560 o          1 V8M      -0.403000
     24 O26        -30.5950     2.7140   -19.3670 o          1 V8M      -0.403000
     25 S20        -20.1480     9.8870   -15.8660 ss         1 V8M      -0.415000
     26 H102       -22.8690     9.6250   -14.7790 hc         1 V8M       0.047200
     27 H101       -23.8270     9.4030   -16.2420 hc         1 V8M       0.047200
     28 H131       -21.1390    11.8220   -18.8820 h1         1 V8M       0.064700
     29 H221       -29.1590     5.6150   -17.0710 ha         1 V8M       0.157000
     30 H281       -27.4660     1.0450   -16.0410 ha         1 V8M       0.143000
     31 H042       -28.1960     6.4320   -15.0290 hc         1 V8M       0.061700
     32 H041       -27.2630     5.4280   -13.9530 hc         1 V8M       0.061700
     33 H052       -25.3200     5.5150   -15.5850 h1         1 V8M       0.056700
     34 H051       -26.2850     6.5660   -16.6380 h1         1 V8M       0.056700
     35 H091       -24.3520    11.5470   -14.1030 hc         1 V8M       0.054200
     36 H092       -25.3360    11.2890   -15.5390 hc         1 V8M       0.054200
     37 H112       -23.2540    11.7380   -16.9670 hc         1 V8M       0.054200
     38 H111       -22.2670    11.9390   -15.5270 hc         1 V8M       0.054200
     39 H121       -21.7870     9.7730   -17.6430 h1         1 V8M       0.071700
     40 H181       -18.9320    10.8060   -19.2560 h1         1 V8M       0.071700
     41 H191       -17.9890     9.4970   -16.9990 h1         1 V8M       0.077700
     42 H192       -19.3520     8.7970   -17.8900 h1         1 V8M       0.077700
     43 H271       -29.0880     1.3470   -17.8800 ha         1 V8M       0.154000
     44 H061       -24.8830     7.3240   -14.1920 hn         1 V8M       0.314500
     45 H141       -20.9570    13.4490   -16.7720 hn         1 V8M       0.337500
     46 H161       -17.2840    11.9290   -17.4910 hn         1 V8M       0.342500
     47 H011       -26.3210     3.7670   -14.0680 ho         1 V8M       0.477000
     48 O17        -18.4750    13.8620   -16.3160 o          1 V8M      -0.575000
     49 C08        -25.5610     9.7530   -14.0180 c3         1 V8M      -0.155400
     50 O01        -26.4980     2.9140   -14.5130 oh         1 V8M      -0.524100
     51 H081       -26.3640    10.3020   -13.5120 hc         1 V8M       0.060200
     52 H082       -24.9250     9.2680   -13.2690 hc         1 V8M       0.060200
@<TRIPOS>BOND
     1     1    11 1   
     2     1    12 1   
     3     1    26 1   
     4     1    27 1   
     5     2    13 1   
     6     2    14 1   
     7     2    19 1   
     8     2    28 1   
     9     3    19 1   
    10     3    20 1   
    11     3    48 2   
    12     4     7 ar  
    13     4    16 ar  
    14     4    29 1   
    15     5     6 ar  
    16     5    17 ar  
    17     5    30 1   
    18     6     7 ar  
    19     6    50 1   
    20     7     8 1   
    21     8     9 1   
    22     8    31 1   
    23     8    32 1   
    24     9    18 1   
    25     9    33 1   
    26     9    34 1   
    27    10    18 1   
    28    10    22 2   
    29    10    49 1   
    30    11    35 1   
    31    11    36 1   
    32    11    49 1   
    33    12    13 1   
    34    12    37 1   
    35    12    38 1   
    36    13    25 1   
    37    13    39 1   
    38    14    15 1   
    39    14    20 1   
    40    14    40 1   
    41    15    25 1   
    42    15    41 1   
    43    15    42 1   
    44    16    17 ar  
    45    16    21 1   
    46    17    43 1   
    47    18    44 1   
    48    19    45 1   
    49    20    46 1   
    50    21    23 1   
    51    21    24 1   
    52    47    50 1   
    53    49    51 1   
    54    49    52 1   
@<TRIPOS>SUBSTRUCTURE
     1 V8M         1 TEMP              0 ****  ****    0 ROOT
