@<TRIPOS>MOLECULE
V8N
   22    22     1     0     0
SMALL
No Charge or Current Charge


@<TRIPOS>ATOM
      1 O2           5.2410   -12.3900     2.8090 o          1 V8N      -0.725500
      2 C19          5.4320   -11.4570     2.0430 c          1 V8N       0.726000
      3 C20          6.1790   -11.7400     0.7300 c3         1 V8N      -0.192100
      4 C21          7.6830   -11.6260     0.9630 ca         1 V8N       0.003700
      5 C22          8.4240   -12.7450     1.3930 ca         1 V8N      -0.070000
      6 C23          9.8150   -12.6500     1.6030 ca         1 V8N      -0.103300
      7 C24         10.6080   -13.8690     2.0570 c3         1 V8N       0.205100
      8 C31         10.4640   -11.4200     1.3810 ca         1 V8N      -0.145000
      9 C32          9.7320   -10.3000     0.9550 ca         1 V8N      -0.126000
     10 C33          8.3460   -10.4030     0.7460 ca         1 V8N      -0.119000
     11 N8          10.6230   -13.9870     3.5220 n8         1 V8N      -0.981200
     12 H2           5.9820   -12.7660     0.3980 hc         1 V8N       0.029700
     13 H3           5.9110   -10.9910    -0.0250 hc         1 V8N       0.029700
     14 H4           7.9190   -13.6920     1.5660 ha         1 V8N       0.123000
     15 H5          10.1670   -14.7830     1.6350 h1         1 V8N       0.014700
     16 H6          11.6440   -13.7920     1.7020 h1         1 V8N       0.014700
     17 H7          11.5370   -11.3330     1.5380 ha         1 V8N       0.081000
     18 H8          10.2380    -9.3530     0.7850 ha         1 V8N       0.086000
     19 H9           7.7870    -9.5300     0.4170 ha         1 V8N       0.103000
     20 H10         11.2480   -14.7580     3.7840 hn         1 V8N       0.385000
     21 H11         11.0820   -13.1550     3.9080 hn         1 V8N       0.385000
     22 OXT          5.1600   -10.2960     2.3120 o          1 V8N      -0.725500
@<TRIPOS>BOND
     1     1     2 1   
     2     2     3 1   
     3     2    22 1   
     4     3     4 1   
     5     3    12 1   
     6     3    13 1   
     7     4     5 ar  
     8     4    10 ar  
     9     5     6 ar  
    10     5    14 1   
    11     6     7 1   
    12     6     8 ar  
    13     7    11 1   
    14     7    15 1   
    15     7    16 1   
    16     8     9 ar  
    17     8    17 1   
    18     9    10 ar  
    19     9    18 1   
    20    10    19 1   
    21    11    20 1   
    22    11    21 1   
@<TRIPOS>SUBSTRUCTURE
     1 V8N         1 TEMP              0 ****  ****    0 ROOT
