@<TRIPOS>MOLECULE
V8N
   22    22     1     0     0
SMALL
bcc


@<TRIPOS>ATOM
      1 O2           6.1280   -11.5060     3.2660 o          1 V8N      -0.830800
      2 C19          5.4950   -11.4320     2.1990 c          1 V8N       0.936600
      3 C20          6.2820   -11.6480     0.8750 c3         1 V8N      -0.192100
      4 C21          7.7700   -11.5650     1.0010 ca         1 V8N       0.003700
      5 C22          8.5140   -12.6550     1.4420 ca         1 V8N      -0.088000
      6 C23          9.9000   -12.5990     1.5720 ca         1 V8N      -0.103300
      7 C24         10.6700   -13.8030     2.0510 c3         1 V8N       0.205100
      8 C31         10.5530   -11.4110     1.2600 ca         1 V8N      -0.163000
      9 C32          9.8290   -10.3090     0.8210 ca         1 V8N      -0.144000
     10 C33          8.4500   -10.3870     0.6920 ca         1 V8N      -0.137000
     11 N8          10.1890   -14.2520     3.3500 n8         1 V8N      -0.870800
     12 H2           5.9980   -12.6350     0.4930 hc         1 V8N       0.029700
     13 H3           5.9260   -10.9280     0.1330 hc         1 V8N       0.029700
     14 H4           8.0020   -13.5800     1.6830 ha         1 V8N       0.141000
     15 H5          10.5280   -14.6240     1.3440 h1         1 V8N       0.014700
     16 H6          11.7430   -13.5660     2.0330 h1         1 V8N       0.014700
     17 H7          11.6310   -11.3460     1.3590 ha         1 V8N       0.099000
     18 H8          10.3430    -9.3870     0.5780 ha         1 V8N       0.104000
     19 H9           7.8940    -9.5240     0.3440 ha         1 V8N       0.121000
     20 H10         10.6850   -15.0920     3.6190 hn         1 V8N       0.329800
     21 H11         10.4180   -13.5570     4.0510 hn         1 V8N       0.329800
     22 OXT          4.2740   -11.2290     2.0570 o          1 V8N      -0.830800
@<TRIPOS>BOND
     1     1     2 1   
     2     2     3 1   
     3     2    22 1   
     4     3     4 1   
     5     3    12 1   
     6     3    13 1   
     7     4     5 ar  
     8     4    10 ar  
     9     5     6 ar  
    10     5    14 1   
    11     6     7 1   
    12     6     8 ar  
    13     7    11 1   
    14     7    15 1   
    15     7    16 1   
    16     8     9 ar  
    17     8    17 1   
    18     9    10 ar  
    19     9    18 1   
    20    10    19 1   
    21    11    20 1   
    22    11    21 1   
@<TRIPOS>SUBSTRUCTURE
     1 V8N         1 TEMP              0 ****  ****    0 ROOT
