@<TRIPOS>MOLECULE
V8O
   41    44     1     0     0
SMALL
abcg2


@<TRIPOS>ATOM
      1 O6          19.4160   -19.8800   -59.5910 o          1 V8O      -0.535000
      2 S4          19.7520   -21.1460   -58.9900 sy         1 V8O       1.206600
      3 O5          20.9480   -21.8510   -59.3830 o          1 V8O      -0.535000
      4 N1          19.8930   -20.8720   -57.3830 n8         1 V8O      -0.999100
      5 C7          18.4000   -22.2220   -59.2580 cc         1 V8O      -0.494500
      6 C11         17.1010   -21.8560   -59.4980 cd         1 V8O       0.014000
      7 C10         16.2440   -22.9740   -59.5980 cd         1 V8O      -0.157000
      8 C9          16.8900   -24.1770   -59.4250 cc         1 V8O      -0.109000
      9 S8          18.5870   -23.9340   -59.1550 ss         1 V8O       0.322000
     10 C12         16.3110   -25.5190   -59.4590 ca         1 V8O      -0.076000
     11 C17         16.9320   -26.6060   -58.8390 ca         1 V8O       0.344900
     12 N16         16.4280   -27.8350   -58.8400 nb         1 V8O      -0.648000
     13 C15         15.2580   -28.0590   -59.4520 cp         1 V8O       0.402500
     14 C14         14.5490   -27.0450   -60.1160 ca         1 V8O      -0.107300
     15 C18         13.2540   -27.3150   -60.8270 c3         1 V8O      -0.046800
     16 C13         15.1040   -25.7720   -60.1140 ca         1 V8O      -0.060000
     17 C19         14.7550   -29.4610   -59.4160 cp         1 V8O      -0.128500
     18 C24         13.6400   -29.8130   -58.6030 ca         1 V8O      -0.064000
     19 C25         12.9730   -28.8960   -57.7590 ca         1 V8O      -0.062000
     20 C26         11.9150   -29.3210   -57.0020 ca         1 V8O      -0.165000
     21 C27         11.5180   -30.6730   -57.0850 ca         1 V8O       0.349900
     22 N28         12.1140   -31.5650   -57.8450 nb         1 V8O      -0.657000
     23 C23         13.1730   -31.1620   -58.6050 ca         1 V8O       0.263000
     24 C22         13.8290   -32.1220   -59.4100 ca         1 V8O      -0.073000
     25 C21         14.9090   -31.7600   -60.1720 ca         1 V8O      -0.105000
     26 C20         15.3740   -30.4290   -60.1720 ca         1 V8O      -0.076000
     27 H1          19.0880   -20.3940   -56.9890 hn         1 V8O       0.476500
     28 H2          20.1340   -21.7070   -56.8580 hn         1 V8O       0.476500
     29 H3          16.7830   -20.8290   -59.5950 ha         1 V8O       0.153000
     30 H4          15.1810   -22.8930   -59.7730 ha         1 V8O       0.140000
     31 H5          17.8680   -26.4740   -58.3060 h4         1 V8O       0.024100
     32 H6          13.2920   -28.2590   -61.3720 hc         1 V8O       0.051700
     33 H7          12.4240   -27.3840   -60.1200 hc         1 V8O       0.051700
     34 H8          13.0280   -26.5120   -61.5280 hc         1 V8O       0.051700
     35 H9          14.5970   -24.9770   -60.6460 ha         1 V8O       0.125000
     36 H10         13.3060   -27.8670   -57.7100 ha         1 V8O       0.122000
     37 H11         11.3840   -28.6450   -56.3460 ha         1 V8O       0.124000
     38 H12         10.6770   -31.0210   -56.4940 h4         1 V8O       0.021100
     39 H13         13.4580   -33.1390   -59.4000 ha         1 V8O       0.134000
     40 H14         15.4130   -32.4960   -60.7850 ha         1 V8O       0.121000
     41 H15         16.2240   -30.1610   -60.7850 ha         1 V8O       0.123000
@<TRIPOS>BOND
     1     1     2 2   
     2     2     3 2   
     3     2     4 1   
     4     2     5 1   
     5     4    27 1   
     6     4    28 1   
     7     5     6 2   
     8     5     9 1   
     9     6     7 1   
    10     6    29 1   
    11     7     8 2   
    12     7    30 1   
    13     8     9 1   
    14     8    10 1   
    15    10    11 ar  
    16    10    16 ar  
    17    11    12 ar  
    18    11    31 1   
    19    12    13 ar  
    20    13    14 ar  
    21    13    17 1   
    22    14    15 1   
    23    14    16 ar  
    24    15    32 1   
    25    15    33 1   
    26    15    34 1   
    27    16    35 1   
    28    17    18 ar  
    29    17    26 ar  
    30    18    19 ar  
    31    18    23 ar  
    32    19    20 ar  
    33    19    36 1   
    34    20    21 ar  
    35    20    37 1   
    36    21    22 ar  
    37    21    38 1   
    38    22    23 ar  
    39    23    24 ar  
    40    24    25 ar  
    41    24    39 1   
    42    25    26 ar  
    43    25    40 1   
    44    26    41 1   
@<TRIPOS>SUBSTRUCTURE
     1 V8O         1 TEMP              0 ****  ****    0 ROOT
