@<TRIPOS>MOLECULE
V8O
   41    44     1     0     0
SMALL
No Charge or Current Charge


@<TRIPOS>ATOM
      1 O6          19.4520   -19.8230   -59.8580 o          1 V8O      -0.535000
      2 S4          19.7780   -21.0340   -59.1060 sy         1 V8O       1.206600
      3 O5          21.0500   -21.7430   -59.2140 o          1 V8O      -0.535000
      4 N1          19.6540   -20.6300   -57.5370 n8         1 V8O      -0.999100
      5 C7          18.4530   -22.1850   -59.2040 cc         1 V8O      -0.494500
      6 C11         17.1140   -21.8890   -59.3210 cd         1 V8O       0.014000
      7 C10         16.2920   -23.0460   -59.4020 cd         1 V8O      -0.157000
      8 C9          17.0150   -24.2150   -59.3650 cc         1 V8O      -0.109000
      9 S8          18.7460   -23.9170   -59.2100 ss         1 V8O       0.322000
     10 C12         16.3700   -25.5330   -59.4090 ca         1 V8O      -0.076000
     11 C17         16.9970   -26.6540   -58.8250 ca         1 V8O       0.344900
     12 N16         16.4630   -27.8950   -58.8320 nb         1 V8O      -0.648000
     13 C15         15.2620   -28.0810   -59.4190 cp         1 V8O       0.402500
     14 C14         14.5650   -27.0220   -60.0660 ca         1 V8O      -0.107300
     15 C18         13.2370   -27.2390   -60.7860 c3         1 V8O      -0.046800
     16 C13         15.1310   -25.7330   -60.0500 ca         1 V8O      -0.060000
     17 C19         14.7380   -29.4810   -59.3850 cp         1 V8O      -0.128500
     18 C24         13.5930   -29.8530   -58.6180 ca         1 V8O      -0.064000
     19 C25         12.9200   -28.9110   -57.8080 ca         1 V8O      -0.062000
     20 C26         11.7980   -29.3260   -57.0770 ca         1 V8O      -0.165000
     21 C27         11.3800   -30.6610   -57.1670 ca         1 V8O       0.349900
     22 N28         12.0190   -31.5770   -57.9270 nb         1 V8O      -0.657000
     23 C23         13.1070   -31.1910   -58.6380 ca         1 V8O       0.263000
     24 C22         13.7820   -32.1460   -59.4200 ca         1 V8O      -0.073000
     25 C21         14.9190   -31.7980   -60.1650 ca         1 V8O      -0.105000
     26 C20         15.3910   -30.4800   -60.1450 ca         1 V8O      -0.076000
     27 H1          19.0130   -21.3480   -57.2120 hn         1 V8O       0.476500
     28 H2          20.5620   -20.9370   -57.1970 hn         1 V8O       0.476500
     29 H3          16.7200   -20.8750   -59.3440 ha         1 V8O       0.153000
     30 H4          15.2110   -22.9930   -59.4740 ha         1 V8O       0.140000
     31 H5          17.9610   -26.5570   -58.3260 h4         1 V8O       0.024100
     32 H6          13.1920   -28.2250   -61.2630 hc         1 V8O       0.051700
     33 H7          12.3940   -27.1630   -60.0910 hc         1 V8O       0.051700
     34 H8          13.0820   -26.4930   -61.5760 hc         1 V8O       0.051700
     35 H9          14.6210   -24.9100   -60.5450 ha         1 V8O       0.125000
     36 H10         13.2540   -27.8790   -57.7320 ha         1 V8O       0.122000
     37 H11         11.2560   -28.6280   -56.4460 ha         1 V8O       0.124000
     38 H12         10.5110   -31.0100   -56.6100 h4         1 V8O       0.021100
     39 H13         13.4200   -33.1700   -59.4420 ha         1 V8O       0.134000
     40 H14         15.4310   -32.5520   -60.7600 ha         1 V8O       0.121000
     41 H15         16.2700   -30.2190   -60.7320 ha         1 V8O       0.123000
@<TRIPOS>BOND
     1     1     2 2   
     2     2     3 2   
     3     2     4 1   
     4     2     5 1   
     5     4    27 1   
     6     4    28 1   
     7     5     6 2   
     8     5     9 1   
     9     6     7 1   
    10     6    29 1   
    11     7     8 2   
    12     7    30 1   
    13     8     9 1   
    14     8    10 1   
    15    10    11 ar  
    16    10    16 ar  
    17    11    12 ar  
    18    11    31 1   
    19    12    13 ar  
    20    13    14 ar  
    21    13    17 1   
    22    14    15 1   
    23    14    16 ar  
    24    15    32 1   
    25    15    33 1   
    26    15    34 1   
    27    16    35 1   
    28    17    18 ar  
    29    17    26 ar  
    30    18    19 ar  
    31    18    23 ar  
    32    19    20 ar  
    33    19    36 1   
    34    20    21 ar  
    35    20    37 1   
    36    21    22 ar  
    37    21    38 1   
    38    22    23 ar  
    39    23    24 ar  
    40    24    25 ar  
    41    24    39 1   
    42    25    26 ar  
    43    25    40 1   
    44    26    41 1   
@<TRIPOS>SUBSTRUCTURE
     1 V8O         1 TEMP              0 ****  ****    0 ROOT
