@<TRIPOS>MOLECULE
V8P
  129   129     1     0     0
SMALL
bcc


@<TRIPOS>ATOM
      1 C21          8.7950    30.9790    78.2600 c3         1 V8P      -0.074400
      2 C16         11.9090    36.4550    76.0220 c3         1 V8P      -0.075400
      3 C20          7.3940    31.5760    78.1350 c3         1 V8P      -0.072400
      4 C15         11.9620    35.6020    77.2870 c3         1 V8P      -0.074400
      5 C17         13.3190    34.9370    77.5570 c3         1 V8P      -0.072400
      6 C14          7.2700    32.7410    77.1550 c3         1 V8P      -0.073400
      7 C19         12.5950    32.5180    77.8940 c3         1 V8P      -0.091100
      8 C13          8.1780    33.9200    77.4860 c3         1 V8P      -0.074400
      9 C9           8.2920    36.0100    72.8430 c3         1 V8P      -0.076400
     10 C11          8.1960    34.9640    75.1510 c3         1 V8P      -0.077400
     11 C8           8.3840    37.2830    72.0130 c3         1 V8P      -0.074400
     12 C7           8.6580    36.9960    70.5420 c3         1 V8P      -0.076400
     13 C5           9.0410    37.9040    68.2120 c3         1 V8P      -0.077400
     14 C6           8.8090    38.2420    69.6800 c3         1 V8P      -0.073400
     15 C4           9.1730    39.1330    67.3200 c3         1 V8P      -0.109400
     16 C1           9.8470    39.7110    63.5120 c3         1 V8P       0.123400
     17 C3           9.5140    38.7860    65.8730 c3         1 V8P       0.146100
     18 C2           9.5720    40.0300    64.9740 c3         1 V8P       0.112700
     19 OAA          9.1360    42.6680    65.9290 o          1 V8P      -0.606100
     20 CAB         11.4730    43.0930    66.1790 c3         1 V8P      -0.161400
     21 CAC         11.4730    43.5110    67.6470 c3         1 V8P       0.159100
     22 O4          12.4790    44.4960    67.7810 oh         1 V8P      -0.602800
     23 CAD         11.7150    42.3150    68.5640 c3         1 V8P      -0.119400
     24 CAE         11.6680    42.6560    70.0480 c3         1 V8P      -0.075400
     25 CAF         11.8230    41.4410    70.9580 c3         1 V8P      -0.074400
     26 CAG         13.1610    40.7220    70.8000 c3         1 V8P      -0.073400
     27 CAH         13.4920    39.7820    71.9540 c3         1 V8P      -0.074400
     28 CAI         12.5470    38.5940    72.1000 c3         1 V8P      -0.076400
     29 CAJ         12.8790    37.7330    73.3120 c3         1 V8P      -0.076400
     30 CAK         11.9380    36.5440    73.4740 c3         1 V8P      -0.078400
     31 CAL         12.1840    35.7040    74.7230 c3         1 V8P      -0.071400
     32 N2          10.5570    40.9740    65.4560 ns         1 V8P      -0.573900
     33 O1A         11.0950    39.0540    63.4200 os         1 V8P      -0.435600
     34 C1A         11.6240    38.9780    62.1370 c6         1 V8P       0.314900
     35 C2A         12.7490    37.9380    62.1310 c6         1 V8P       0.091100
     36 O2A         12.3410    36.7090    62.6800 oh         1 V8P      -0.591800
     37 C3A         13.9360    38.4460    62.9430 c6         1 V8P       0.161100
     38 O3A         15.0190    37.5520    62.8980 oh         1 V8P      -0.580800
     39 C4A         14.3870    39.8060    62.4240 c6         1 V8P       0.131100
     40 O4A         14.9280    39.6470    61.1330 oh         1 V8P      -0.579800
     41 C5M         13.1820    40.7520    62.4320 c6         1 V8P       0.115100
     42 C6A         13.4650    42.1110    61.8140 c3         1 V8P       0.134400
     43 O6A         14.5550    42.6810    62.5000 oh         1 V8P      -0.608800
     44 O5A         12.1010    40.2140    61.6860 os         1 V8P      -0.424600
     45 O3           8.5420    37.9370    65.2960 oh         1 V8P      -0.601800
     46 C10          8.0840    36.2470    74.3340 c3         1 V8P      -0.075400
     47 C12          7.9280    35.1640    76.6370 c3         1 V8P      -0.073400
     48 C18         13.4380    33.4900    77.0780 c3         1 V8P      -0.075400
     49 C22          9.3700    30.4750    76.9430 c3         1 V8P      -0.089100
     50 H1           9.4780    31.7140    78.6960 hc         1 V8P       0.035700
     51 H2           8.7570    30.1520    78.9740 hc         1 V8P       0.035700
     52 H3          12.6180    37.2810    76.1280 hc         1 V8P       0.036200
     53 H4          10.9160    36.9150    75.9560 hc         1 V8P       0.036200
     54 H5           6.7000    30.7850    77.8320 hc         1 V8P       0.036200
     55 H6           7.0630    31.9070    79.1240 hc         1 V8P       0.036200
     56 H7          11.6970    36.2420    78.1320 hc         1 V8P       0.038200
     57 H8          11.1740    34.8430    77.2380 hc         1 V8P       0.038200
     58 H9          14.1100    35.5390    77.0980 hc         1 V8P       0.036700
     59 H10         13.5270    34.9530    78.6320 hc         1 V8P       0.036700
     60 H11          7.4680    32.3890    76.1380 hc         1 V8P       0.037700
     61 H12          6.2300    33.0840    77.1510 hc         1 V8P       0.037700
     62 H13         12.7030    31.4950    77.5300 hc         1 V8P       0.031033
     63 H14         12.8910    32.5300    78.9440 hc         1 V8P       0.031033
     64 H15         11.5320    32.7640    77.8520 hc         1 V8P       0.031033
     65 H16          9.2270    33.6230    77.3740 hc         1 V8P       0.038200
     66 H17          8.0510    34.1790    78.5430 hc         1 V8P       0.038200
     67 H18          7.4810    35.3830    72.4570 hc         1 V8P       0.037200
     68 H19          9.2110    35.4290    72.7030 hc         1 V8P       0.037200
     69 H20          7.5050    34.2200    74.7430 hc         1 V8P       0.038200
     70 H21          9.2010    34.5470    75.0200 hc         1 V8P       0.038200
     71 H22          9.1790    37.9220    72.4130 hc         1 V8P       0.038700
     72 H23          7.4570    37.8600    72.1080 hc         1 V8P       0.038700
     73 H24          7.8480    36.3770    70.1390 hc         1 V8P       0.036700
     74 H25          9.5680    36.3900    70.4600 hc         1 V8P       0.036700
     75 H26          8.2120    37.2780    67.8660 hc         1 V8P       0.035700
     76 H27          9.9460    37.2920    68.1250 hc         1 V8P       0.035700
     77 H28          9.6420    38.8480    70.0550 hc         1 V8P       0.040200
     78 H29          7.9130    38.8660    69.7730 hc         1 V8P       0.040200
     79 H30          9.9610    39.7730    67.7250 hc         1 V8P       0.054200
     80 H31          8.2480    39.7190    67.3510 hc         1 V8P       0.054200
     81 H32          9.8510    40.6520    62.9520 h1         1 V8P       0.049200
     82 H33          9.0520    39.0840    63.0970 h1         1 V8P       0.049200
     83 H34         10.5000    38.2990    65.8660 h1         1 V8P       0.041700
     84 H35          8.6000    40.5270    65.0160 h1         1 V8P       0.099700
     85 H36         12.4150    42.5940    65.9360 hc         1 V8P       0.073700
     86 H37         11.4110    43.9870    65.5530 hc         1 V8P       0.073700
     87 H38         10.4890    43.9400    67.8840 h1         1 V8P       0.050700
     88 H39         12.4130    44.8830    68.6590 ho         1 V8P       0.408000
     89 H40         10.9530    41.5550    68.3630 hc         1 V8P       0.050700
     90 H41         12.6770    41.8650    68.3000 hc         1 V8P       0.050700
     91 H42         12.4550    43.3770    70.2980 hc         1 V8P       0.037700
     92 H43         10.7160    43.1480    70.2710 hc         1 V8P       0.037700
     93 H44         11.7180    41.7700    71.9970 hc         1 V8P       0.040200
     94 H45         10.9960    40.7460    70.7760 hc         1 V8P       0.040200
     95 H46         13.1810    40.1630    69.8590 hc         1 V8P       0.038700
     96 H47         13.9560    41.4720    70.7210 hc         1 V8P       0.038700
     97 H48         14.5130    39.4070    71.8300 hc         1 V8P       0.037700
     98 H49         13.4920    40.3550    72.8880 hc         1 V8P       0.037700
     99 H50         11.5140    38.9440    72.1890 hc         1 V8P       0.037200
    100 H51         12.5840    37.9840    71.1900 hc         1 V8P       0.037200
    101 H52         13.9110    37.3740    73.2400 hc         1 V8P       0.037700
    102 H53         12.8390    38.3630    74.2060 hc         1 V8P       0.037700
    103 H54         10.9060    36.9100    73.4940 hc         1 V8P       0.038200
    104 H55         12.0140    35.9090    72.5850 hc         1 V8P       0.038200
    105 H56         11.5420    34.8170    74.6860 hc         1 V8P       0.038200
    106 H57         13.2130    35.3320    74.7140 hc         1 V8P       0.038200
    107 H58         11.5240    40.6920    65.4150 hn         1 V8P       0.319500
    108 H59         10.8450    38.6930    61.4160 h2         1 V8P       0.069700
    109 H60         13.0650    37.8150    61.0880 h1         1 V8P       0.075700
    110 H61         11.8490    36.2190    62.0150 ho         1 V8P       0.411000
    111 H62         13.6050    38.5980    63.9810 h1         1 V8P       0.048700
    112 H63         14.7050    36.6990    63.2140 ho         1 V8P       0.418000
    113 H64         15.1370    40.2040    63.1190 h1         1 V8P       0.065700
    114 H65         15.4890    40.4040    60.9430 ho         1 V8P       0.409000
    115 H66         12.8900    40.9080    63.4790 h1         1 V8P       0.051700
    116 H67         13.6700    41.9930    60.7430 h1         1 V8P       0.039200
    117 H68         12.5620    42.7280    61.9010 h1         1 V8P       0.039200
    118 H69         14.7670    43.5230    62.0870 ho         1 V8P       0.415000
    119 H70          8.6740    37.0450    65.6270 ho         1 V8P       0.410000
    120 H71          8.8280    36.9670    74.6960 hc         1 V8P       0.037200
    121 H72          7.1060    36.7090    74.5040 hc         1 V8P       0.037200
    122 H73          8.5620    35.9770    77.0050 hc         1 V8P       0.037200
    123 H74          6.8940    35.5000    76.7790 hc         1 V8P       0.037200
    124 H75         13.1620    33.4170    76.0230 hc         1 V8P       0.036700
    125 H76         14.4860    33.1820    77.1370 hc         1 V8P       0.036700
    126 H77         10.3310    29.9820    77.0970 hc         1 V8P       0.031033
    127 H78          8.7000    29.7560    76.4680 hc         1 V8P       0.031033
    128 H79          9.5360    31.2880    76.2340 hc         1 V8P       0.031033
    129 CAA         10.2750    42.2310    65.8440 c          1 V8P       0.667100
@<TRIPOS>BOND
     1     1     3 1   
     2     1    49 1   
     3     1    50 1   
     4     1    51 1   
     5     2     4 1   
     6     2    31 1   
     7     2    52 1   
     8     2    53 1   
     9     3     6 1   
    10     3    54 1   
    11     3    55 1   
    12     4     5 1   
    13     4    56 1   
    14     4    57 1   
    15     5    48 1   
    16     5    58 1   
    17     5    59 1   
    18     6     8 1   
    19     6    60 1   
    20     6    61 1   
    21     7    48 1   
    22     7    62 1   
    23     7    63 1   
    24     7    64 1   
    25     8    47 1   
    26     8    65 1   
    27     8    66 1   
    28     9    11 1   
    29     9    46 1   
    30     9    67 1   
    31     9    68 1   
    32    10    46 1   
    33    10    47 1   
    34    10    69 1   
    35    10    70 1   
    36    11    12 1   
    37    11    71 1   
    38    11    72 1   
    39    12    14 1   
    40    12    73 1   
    41    12    74 1   
    42    13    14 1   
    43    13    15 1   
    44    13    75 1   
    45    13    76 1   
    46    14    77 1   
    47    14    78 1   
    48    15    17 1   
    49    15    79 1   
    50    15    80 1   
    51    16    18 1   
    52    16    33 1   
    53    16    81 1   
    54    16    82 1   
    55    17    18 1   
    56    17    45 1   
    57    17    83 1   
    58    18    32 1   
    59    18    84 1   
    60    19   129 2   
    61    20    21 1   
    62    20    85 1   
    63    20    86 1   
    64    20   129 1   
    65    21    22 1   
    66    21    23 1   
    67    21    87 1   
    68    22    88 1   
    69    23    24 1   
    70    23    89 1   
    71    23    90 1   
    72    24    25 1   
    73    24    91 1   
    74    24    92 1   
    75    25    26 1   
    76    25    93 1   
    77    25    94 1   
    78    26    27 1   
    79    26    95 1   
    80    26    96 1   
    81    27    28 1   
    82    27    97 1   
    83    27    98 1   
    84    28    29 1   
    85    28    99 1   
    86    28   100 1   
    87    29    30 1   
    88    29   101 1   
    89    29   102 1   
    90    30    31 1   
    91    30   103 1   
    92    30   104 1   
    93    31   105 1   
    94    31   106 1   
    95    32   107 1   
    96    32   129 1   
    97    33    34 1   
    98    34    35 1   
    99    34    44 1   
   100    34   108 1   
   101    35    36 1   
   102    35    37 1   
   103    35   109 1   
   104    36   110 1   
   105    37    38 1   
   106    37    39 1   
   107    37   111 1   
   108    38   112 1   
   109    39    40 1   
   110    39    41 1   
   111    39   113 1   
   112    40   114 1   
   113    41    42 1   
   114    41    44 1   
   115    41   115 1   
   116    42    43 1   
   117    42   116 1   
   118    42   117 1   
   119    43   118 1   
   120    45   119 1   
   121    46   120 1   
   122    46   121 1   
   123    47   122 1   
   124    47   123 1   
   125    48   124 1   
   126    48   125 1   
   127    49   126 1   
   128    49   127 1   
   129    49   128 1   
@<TRIPOS>SUBSTRUCTURE
     1 V8P         1 TEMP              0 ****  ****    0 ROOT
