@<TRIPOS>MOLECULE
V8P
  129   129     1     0     0
SMALL
No Charge or Current Charge


@<TRIPOS>ATOM
      1 C21          8.4640    30.9810    78.7470 c3         1 V8P      -0.074400
      2 C16         12.1650    36.3770    76.0680 c3         1 V8P      -0.075400
      3 C20          7.1250    31.7620    78.7230 c3         1 V8P      -0.072400
      4 C15         11.9720    35.4120    77.2650 c3         1 V8P      -0.074400
      5 C17         13.1160    34.3990    77.5440 c3         1 V8P      -0.072400
      6 C14          7.0350    32.9120    77.6880 c3         1 V8P      -0.073400
      7 C19         11.8640    32.2340    76.8150 c3         1 V8P      -0.091100
      8 C13          8.0730    34.0410    77.8990 c3         1 V8P      -0.074400
      9 C9           8.4130    35.8210    73.0550 c3         1 V8P      -0.076400
     10 C11          8.1800    34.9130    75.4520 c3         1 V8P      -0.077400
     11 C8           8.4090    37.0620    72.1340 c3         1 V8P      -0.074400
     12 C7           8.8590    36.7340    70.6940 c3         1 V8P      -0.076400
     13 C5           9.2880    37.6090    68.3160 c3         1 V8P      -0.077400
     14 C6           8.8970    37.9680    69.7660 c3         1 V8P      -0.073400
     15 C4           9.2870    38.8300    67.3620 c3         1 V8P      -0.109400
     16 C1          10.0820    39.4270    63.5010 c3         1 V8P       0.146600
     17 C3           9.6790    38.5010    65.8960 c3         1 V8P       0.169300
     18 C2           9.7260    39.7590    64.9720 c3         1 V8P       0.112700
     19 OAA          9.1610    42.5080    65.6450 o          1 V8P      -0.606100
     20 CAB         11.4890    43.0360    66.0000 c3         1 V8P      -0.161400
     21 CAC         11.5070    43.5040    67.4680 c3         1 V8P       0.182300
     22 O4          12.5080    44.5180    67.5900 oh         1 V8P      -0.665000
     23 CAD         11.8120    42.3620    68.4690 c3         1 V8P      -0.119400
     24 CAE         11.7860    42.7950    69.9580 c3         1 V8P      -0.075400
     25 CAF         11.9680    41.6320    70.9620 c3         1 V8P      -0.074400
     26 CAG         13.3320    40.9050    70.8550 c3         1 V8P      -0.073400
     27 CAH         13.6370    39.9460    72.0300 c3         1 V8P      -0.074400
     28 CAI         12.6520    38.7620    72.1650 c3         1 V8P      -0.076400
     29 CAJ         13.0060    37.8150    73.3320 c3         1 V8P      -0.076400
     30 CAK         11.9740    36.6800    73.5000 c3         1 V8P      -0.078400
     31 CAL         12.2470    35.7120    74.6730 c3         1 V8P      -0.071400
     32 N2          10.6510    40.7950    65.4710 ns         1 V8P      -0.506900
     33 O1A         11.4610    39.0010    63.4440 os         1 V8P      -0.482000
     34 C1A         11.9990    38.7670    62.1290 c6         1 V8P       0.361300
     35 C2A         13.4290    38.1350    62.2310 c6         1 V8P       0.114300
     36 O2A         13.4320    36.9630    63.0870 oh         1 V8P      -0.714000
     37 C3A         14.4420    39.1920    62.7700 c6         1 V8P       0.184300
     38 O3A         15.7610    38.6180    62.8490 oh         1 V8P      -0.643000
     39 C4A         14.4060    40.4880    61.8950 c6         1 V8P       0.154300
     40 O4A         14.8600    40.2220    60.5420 oh         1 V8P      -0.702000
     41 C5M         12.9320    41.0150    61.9200 c6         1 V8P       0.138300
     42 C6A         12.7170    42.3210    61.0950 c3         1 V8P       0.157600
     43 O6A         13.5740    43.3950    61.5240 oh         1 V8P      -0.731000
     44 O5A         12.0290    40.0100    61.3880 os         1 V8P      -0.471000
     45 O3           8.7340    37.5560    65.3700 oh         1 V8P      -0.664000
     46 C10          8.1180    36.1540    74.5340 c3         1 V8P      -0.075400
     47 C12          7.9160    35.2450    76.9390 c3         1 V8P      -0.073400
     48 C18         13.1340    33.1020    76.6920 c3         1 V8P      -0.075400
     49 C22          8.8160    30.2770    77.4200 c3         1 V8P      -0.089100
     50 H1           9.2830    31.6530    79.0300 hc         1 V8P       0.035700
     51 H2           8.4060    30.2220    79.5360 hc         1 V8P       0.035700
     52 H3          13.0650    36.9800    76.2350 hc         1 V8P       0.036200
     53 H4          11.3190    37.0760    76.0720 hc         1 V8P       0.036200
     54 H5           6.3100    31.0540    78.5290 hc         1 V8P       0.036200
     55 H6           6.9420    32.1740    79.7230 hc         1 V8P       0.036200
     56 H7          11.8600    36.0340    78.1620 hc         1 V8P       0.038200
     57 H8          11.0190    34.8860    77.1570 hc         1 V8P       0.038200
     58 H9          14.0800    34.9110    77.4360 hc         1 V8P       0.036700
     59 H10         13.0520    34.1020    78.5980 hc         1 V8P       0.036700
     60 H11          7.1350    32.4960    76.6790 hc         1 V8P       0.037700
     61 H12          6.0280    33.3450    77.7430 hc         1 V8P       0.037700
     62 H13         12.0100    31.2740    76.3040 hc         1 V8P       0.031033
     63 H14         11.6320    32.0290    77.8660 hc         1 V8P       0.031033
     64 H15         11.0010    32.7280    76.3550 hc         1 V8P       0.031033
     65 H16          9.0840    33.6340    77.7920 hc         1 V8P       0.038200
     66 H17          7.9900    34.4080    78.9300 hc         1 V8P       0.038200
     67 H18          7.6690    35.1010    72.6910 hc         1 V8P       0.037200
     68 H19          9.3880    35.3240    72.9900 hc         1 V8P       0.037200
     69 H20          7.4430    34.1800    75.1010 hc         1 V8P       0.038200
     70 H21          9.1670    34.4450    75.3590 hc         1 V8P       0.038200
     71 H22          9.0710    37.8320    72.5480 hc         1 V8P       0.038700
     72 H23          7.4000    37.4910    72.1120 hc         1 V8P       0.038700
     73 H24          8.1790    35.9840    70.2710 hc         1 V8P       0.036700
     74 H25          9.8570    36.2800    70.7220 hc         1 V8P       0.036700
     75 H26          8.5870    36.8500    67.9470 hc         1 V8P       0.035700
     76 H27         10.2860    37.1520    68.3150 hc         1 V8P       0.035700
     77 H28          9.6100    38.7010    70.1650 hc         1 V8P       0.040200
     78 H29          7.9100    38.4480    69.7640 hc         1 V8P       0.040200
     79 H30          9.9860    39.5710    67.7620 hc         1 V8P       0.054200
     80 H31          8.2940    39.2980    67.3730 hc         1 V8P       0.054200
     81 H32          9.9330    40.3300    62.8960 h1         1 V8P       0.049200
     82 H33          9.4140    38.6490    63.1100 h1         1 V8P       0.049200
     83 H34         10.6820    38.0530    65.9060 h1         1 V8P       0.041700
     84 H35          8.7090    40.1740    64.9620 h1         1 V8P       0.099700
     85 H36         12.4380    42.5360    65.7740 hc         1 V8P       0.073700
     86 H37         11.3820    43.9200    65.3610 hc         1 V8P       0.073700
     87 H38         10.5210    43.9260    67.7090 h1         1 V8P       0.050700
     88 H39         12.4960    44.8190    68.5240 ho         1 V8P       0.447000
     89 H40         11.0720    41.5650    68.3340 hc         1 V8P       0.050700
     90 H41         12.7900    41.9280    68.2290 hc         1 V8P       0.050700
     91 H42         12.5680    43.5410    70.1420 hc         1 V8P       0.037700
     92 H43         10.8270    43.2850    70.1670 hc         1 V8P       0.037700
     93 H44         11.8590    42.0360    71.9770 hc         1 V8P       0.040200
     94 H45         11.1540    40.9110    70.8230 hc         1 V8P       0.040200
     95 H46         13.3750    40.3410    69.9150 hc         1 V8P       0.038700
     96 H47         14.1320    41.6550    70.8100 hc         1 V8P       0.038700
     97 H48         14.6510    39.5480    71.8990 hc         1 V8P       0.037700
     98 H49         13.6440    40.5180    72.9660 hc         1 V8P       0.037700
     99 H50         11.6370    39.1480    72.3220 hc         1 V8P       0.037200
    100 H51         12.6360    38.1930    71.2270 hc         1 V8P       0.037200
    101 H52         14.0000    37.3820    73.1650 hc         1 V8P       0.037700
    102 H53         13.0600    38.4000    74.2580 hc         1 V8P       0.037700
    103 H54         10.9850    37.1270    73.6430 hc         1 V8P       0.038200
    104 H55         11.9270    36.1000    72.5690 hc         1 V8P       0.038200
    105 H56         11.5160    34.8960    74.6200 hc         1 V8P       0.038200
    106 H57         13.2390    35.2680    74.5360 hc         1 V8P       0.038200
    107 H58         11.6350    40.5600    65.5150 hn         1 V8P       0.319500
    108 H59         11.3460    38.0560    61.6010 h2         1 V8P       0.069700
    109 H60         13.7360    37.8520    61.2130 h1         1 V8P       0.075700
    110 H61         12.7560    37.1400    63.7850 ho         1 V8P       0.510000
    111 H62         14.1190    39.4750    63.7840 h1         1 V8P       0.048700
    112 H63         15.6030    37.6670    63.0490 ho         1 V8P       0.457000
    113 H64         15.0540    41.2380    62.3740 h1         1 V8P       0.065700
    114 H65         15.0620    41.0960    60.1360 ho         1 V8P       0.508000
    115 H66         12.6450    41.2340    62.9590 h1         1 V8P       0.051700
    116 H67         12.8870    42.0990    60.0320 h1         1 V8P       0.039200
    117 H68         11.6640    42.6150    61.2010 h1         1 V8P       0.039200
    118 H69         13.3190    44.1950    61.0050 ho         1 V8P       0.514000
    119 H70          8.7690    36.7650    65.9510 ho         1 V8P       0.449000
    120 H71          8.8420    36.8970    74.8890 hc         1 V8P       0.037200
    121 H72          7.1240    36.6130    74.6110 hc         1 V8P       0.037200
    122 H73          8.6160    36.0290    77.2540 hc         1 V8P       0.037200
    123 H74          6.9080    35.6640    77.0460 hc         1 V8P       0.037200
    124 H75         13.3120    33.3320    75.6380 hc         1 V8P       0.036700
    125 H76         13.9910    32.4990    77.0150 hc         1 V8P       0.036700
    126 H77          9.7330    29.6860    77.5360 hc         1 V8P       0.031033
    127 H78          8.0090    29.6010    77.1140 hc         1 V8P       0.031033
    128 H79          8.9840    31.0050    76.6180 hc         1 V8P       0.031033
    129 CAA         10.3130    42.1070    65.7110 c          1 V8P       0.600100
@<TRIPOS>BOND
     1     1     3 1   
     2     1    49 1   
     3     1    50 1   
     4     1    51 1   
     5     2     4 1   
     6     2    31 1   
     7     2    52 1   
     8     2    53 1   
     9     3     6 1   
    10     3    54 1   
    11     3    55 1   
    12     4     5 1   
    13     4    56 1   
    14     4    57 1   
    15     5    48 1   
    16     5    58 1   
    17     5    59 1   
    18     6     8 1   
    19     6    60 1   
    20     6    61 1   
    21     7    48 1   
    22     7    62 1   
    23     7    63 1   
    24     7    64 1   
    25     8    47 1   
    26     8    65 1   
    27     8    66 1   
    28     9    11 1   
    29     9    46 1   
    30     9    67 1   
    31     9    68 1   
    32    10    46 1   
    33    10    47 1   
    34    10    69 1   
    35    10    70 1   
    36    11    12 1   
    37    11    71 1   
    38    11    72 1   
    39    12    14 1   
    40    12    73 1   
    41    12    74 1   
    42    13    14 1   
    43    13    15 1   
    44    13    75 1   
    45    13    76 1   
    46    14    77 1   
    47    14    78 1   
    48    15    17 1   
    49    15    79 1   
    50    15    80 1   
    51    16    18 1   
    52    16    33 1   
    53    16    81 1   
    54    16    82 1   
    55    17    18 1   
    56    17    45 1   
    57    17    83 1   
    58    18    32 1   
    59    18    84 1   
    60    19   129 2   
    61    20    21 1   
    62    20    85 1   
    63    20    86 1   
    64    20   129 1   
    65    21    22 1   
    66    21    23 1   
    67    21    87 1   
    68    22    88 1   
    69    23    24 1   
    70    23    89 1   
    71    23    90 1   
    72    24    25 1   
    73    24    91 1   
    74    24    92 1   
    75    25    26 1   
    76    25    93 1   
    77    25    94 1   
    78    26    27 1   
    79    26    95 1   
    80    26    96 1   
    81    27    28 1   
    82    27    97 1   
    83    27    98 1   
    84    28    29 1   
    85    28    99 1   
    86    28   100 1   
    87    29    30 1   
    88    29   101 1   
    89    29   102 1   
    90    30    31 1   
    91    30   103 1   
    92    30   104 1   
    93    31   105 1   
    94    31   106 1   
    95    32   107 1   
    96    32   129 1   
    97    33    34 1   
    98    34    35 1   
    99    34    44 1   
   100    34   108 1   
   101    35    36 1   
   102    35    37 1   
   103    35   109 1   
   104    36   110 1   
   105    37    38 1   
   106    37    39 1   
   107    37   111 1   
   108    38   112 1   
   109    39    40 1   
   110    39    41 1   
   111    39   113 1   
   112    40   114 1   
   113    41    42 1   
   114    41    44 1   
   115    41   115 1   
   116    42    43 1   
   117    42   116 1   
   118    42   117 1   
   119    43   118 1   
   120    45   119 1   
   121    46   120 1   
   122    46   121 1   
   123    47   122 1   
   124    47   123 1   
   125    48   124 1   
   126    48   125 1   
   127    49   126 1   
   128    49   127 1   
   129    49   128 1   
@<TRIPOS>SUBSTRUCTURE
     1 V8P         1 TEMP              0 ****  ****    0 ROOT
