@<TRIPOS>MOLECULE
V8Q
   14    14     1     0     0
SMALL
bcc


@<TRIPOS>ATOM
      1 C01         -1.6410    -7.2300   -15.5110 c          1 V8Q       0.793500
      2 C02         -0.0020    -5.8930   -16.7230 cs         1 V8Q       0.314100
      3 C03         -0.0480    -6.9220   -17.7600 cc         1 V8Q       0.330300
      4 C04          0.8040    -6.7980   -18.9740 c3         1 V8Q      -0.114400
      5 N01         -0.8170    -6.1350   -15.6670 ns         1 V8Q      -0.519500
      6 N02         -0.8130    -7.9480   -17.6490 nd         1 V8Q      -0.399300
      7 N03         -1.5760    -8.0880   -16.5710 ns         1 V8Q      -0.313900
      8 O01         -2.3400    -7.4040   -14.5410 o          1 V8Q      -0.597500
      9 S01          0.9490    -4.5560   -16.8080 s          1 V8Q      -0.439400
     10 H1           0.6290    -7.6420   -19.6380 hc         1 V8Q       0.067700
     11 H2           0.5880    -5.8740   -19.5100 hc         1 V8Q       0.067700
     12 H3           1.8600    -6.7730   -18.7060 hc         1 V8Q       0.067700
     13 H4          -0.8290    -5.4580   -14.9120 hn         1 V8Q       0.362500
     14 H5          -2.1490    -8.9190   -16.5530 hn         1 V8Q       0.378500
@<TRIPOS>BOND
     1     1     5 1   
     2     1     7 1   
     3     1     8 2   
     4     2     3 1   
     5     2     5 1   
     6     2     9 2   
     7     3     4 1   
     8     3     6 2   
     9     4    10 1   
    10     4    11 1   
    11     4    12 1   
    12     5    13 1   
    13     6     7 1   
    14     7    14 1   
@<TRIPOS>SUBSTRUCTURE
     1 V8Q         1 TEMP              0 ****  ****    0 ROOT
