@<TRIPOS>MOLECULE
V8Q
   14    14     1     0     0
SMALL
No Charge or Current Charge


@<TRIPOS>ATOM
      1 C01         -1.6560    -7.2220   -15.4920 c          1 V8Q       0.584000
      2 C02          0.0070    -5.9250   -16.7520 cs         1 V8Q       0.247100
      3 C03         -0.0430    -6.9600   -17.7980 cc         1 V8Q       0.330300
      4 C04          0.8370    -6.7700   -19.0050 c3         1 V8Q      -0.114400
      5 N01         -0.8210    -6.1600   -15.6770 ns         1 V8Q      -0.385500
      6 N02         -0.8400    -8.0320   -17.6830 nd         1 V8Q      -0.399300
      7 N03         -1.6090    -8.1130   -16.5360 ns         1 V8Q      -0.360400
      8 O01         -2.3620    -7.3640   -14.5110 o          1 V8Q      -0.522000
      9 S01          0.9520    -4.5380   -16.7610 s          1 V8Q      -0.439400
     10 H1           0.7200    -7.5960   -19.7160 hc         1 V8Q       0.067700
     11 H2           0.5860    -5.8410   -19.5290 hc         1 V8Q       0.067700
     12 H3           1.8930    -6.7260   -18.7150 hc         1 V8Q       0.067700
     13 H4          -0.8200    -5.4760   -14.9340 hn         1 V8Q       0.362500
     14 H5          -2.2280    -8.9160   -16.4150 hn         1 V8Q       0.492000
@<TRIPOS>BOND
     1     1     5 1   
     2     1     7 1   
     3     1     8 2   
     4     2     3 1   
     5     2     5 1   
     6     2     9 2   
     7     3     4 1   
     8     3     6 2   
     9     4    10 1   
    10     4    11 1   
    11     4    12 1   
    12     5    13 1   
    13     6     7 1   
    14     7    14 1   
@<TRIPOS>SUBSTRUCTURE
     1 V8Q         1 TEMP              0 ****  ****    0 ROOT
