@<TRIPOS>MOLECULE
V8R
   51    54     1     0     0
SMALL
No Charge or Current Charge


@<TRIPOS>ATOM
      1 O30        -14.4700     6.3880    20.8180 o          1 V8R      -0.696500
      2 C25        -15.1150     5.9150    19.8920 c          1 V8R       0.715000
      3 O29        -16.3360     5.9800    19.8630 o          1 V8R      -0.696500
      4 C6         -14.4570     4.7450    19.1290 c6         1 V8R      -0.115700
      5 C1         -14.3930     5.0590    17.6070 c6         1 V8R       0.192300
      6 O27        -13.3690     6.0250    17.3340 oh         1 V8R      -0.752000
      7 N5         -15.1180     3.4350    19.3980 na         1 V8R      -0.102500
      8 C9         -15.3850     2.8840    20.6300 cc         1 V8R      -0.149000
      9 C8         -15.9240     1.6510    20.3630 cd         1 V8R       0.183300
     10 N7         -15.9760     1.4170    19.0040 nd         1 V8R      -0.711000
     11 C4         -15.4860     2.5130    18.4370 cc         1 V8R       0.343800
     12 C3         -15.2960     2.7590    16.9460 c6         1 V8R       0.118000
     13 O28        -15.0350     1.5320    16.2220 oh         1 V8R      -0.738000
     14 C2         -14.1300     3.7730    16.7590 c6         1 V8R       0.163300
     15 O26        -13.9800     4.1060    15.3670 oh         1 V8R      -0.646000
     16 C10        -16.3960     0.6280    21.3640 c3         1 V8R      -0.068700
     17 C11        -17.9310     0.6130    21.5200 c3         1 V8R      -0.040100
     18 C12        -18.3940    -0.4090    22.5490 ca         1 V8R      -0.045300
     19 C17        -18.7060    -1.7250    22.1550 ca         1 V8R      -0.122000
     20 C16        -19.1230    -2.6720    23.1070 ca         1 V8R      -0.099000
     21 C15        -19.2340    -2.3070    24.4590 ca         1 V8R      -0.158000
     22 C14        -18.9340    -0.9900    24.8580 ca         1 V8R       0.101100
     23 C13        -18.5050    -0.0500    23.9070 ca         1 V8R      -0.116000
     24 O18        -19.0200    -0.6110    26.1790 os         1 V8R      -0.260200
     25 C19        -20.0220    -1.0420    27.0190 ca         1 V8R       0.133100
     26 C24        -21.3460    -1.1880    26.5600 ca         1 V8R      -0.148000
     27 C23        -22.3530    -1.6150    27.4440 ca         1 V8R      -0.087500
     28 C22        -22.0390    -1.8890    28.7860 ca         1 V8R      -0.143000
     29 C21        -20.7200    -1.7310    29.2490 ca         1 V8R      -0.087500
     30 C20        -19.7140    -1.3040    28.3640 ca         1 V8R      -0.148000
     31 H6         -13.4270     4.6630    19.5020 h1         1 V8R       0.065700
     32 H1         -15.3710     5.4590    17.2970 h1         1 V8R       0.046700
     33 HO27       -13.1690     5.8980    16.3720 ho         1 V8R       0.565000
     34 H9         -15.1840     3.3850    21.5680 h4         1 V8R       0.174000
     35 H3         -16.2170     3.2230    16.5620 h1         1 V8R       0.055700
     36 HO28       -15.4210     0.8160    16.7860 ho         1 V8R       0.522000
     37 H2         -13.2060     3.3010    17.1280 h1         1 V8R       0.049700
     38 HO26       -14.1270     3.2580    14.8890 ho         1 V8R       0.438000
     39 H102       -16.0550    -0.3710    21.0650 hc         1 V8R       0.039200
     40 H101       -15.9400     0.8300    22.3410 hc         1 V8R       0.039200
     41 H111       -18.2720     1.6160    21.8040 hc         1 V8R       0.061200
     42 H112       -18.3880     0.4010    20.5450 hc         1 V8R       0.061200
     43 H17        -18.6190    -2.0160    21.1100 ha         1 V8R       0.120000
     44 H16        -19.3550    -3.6880    22.7960 ha         1 V8R       0.108000
     45 H15        -19.5460    -3.0470    25.1920 ha         1 V8R       0.118000
     46 H13        -18.2620     0.9600    24.2260 ha         1 V8R       0.134000
     47 H24        -21.5960    -0.9670    25.5250 ha         1 V8R       0.129000
     48 H23        -23.3750    -1.7310    27.0890 ha         1 V8R       0.110000
     49 H22        -22.8180    -2.2190    29.4700 ha         1 V8R       0.109000
     50 H21        -20.4800    -1.9380    30.2890 ha         1 V8R       0.110000
     51 H20        -18.6940    -1.1790    28.7200 ha         1 V8R       0.129000
@<TRIPOS>BOND
     1     1     2 1   
     2     2     3 1   
     3     2     4 1   
     4     4     5 1   
     5     4     7 1   
     6     4    31 1   
     7     5     6 1   
     8     5    14 1   
     9     5    32 1   
    10     6    33 1   
    11     7     8 1   
    12     7    11 1   
    13     8     9 2   
    14     8    34 1   
    15     9    10 1   
    16     9    16 1   
    17    10    11 2   
    18    11    12 1   
    19    12    13 1   
    20    12    14 1   
    21    12    35 1   
    22    13    36 1   
    23    14    15 1   
    24    14    37 1   
    25    15    38 1   
    26    16    17 1   
    27    16    39 1   
    28    16    40 1   
    29    17    18 1   
    30    17    41 1   
    31    17    42 1   
    32    18    19 ar  
    33    18    23 ar  
    34    19    20 ar  
    35    19    43 1   
    36    20    21 ar  
    37    20    44 1   
    38    21    22 ar  
    39    21    45 1   
    40    22    23 ar  
    41    22    24 1   
    42    23    46 1   
    43    24    25 1   
    44    25    26 ar  
    45    25    30 ar  
    46    26    27 ar  
    47    26    47 1   
    48    27    28 ar  
    49    27    48 1   
    50    28    29 ar  
    51    28    49 1   
    52    29    30 ar  
    53    29    50 1   
    54    30    51 1   
@<TRIPOS>SUBSTRUCTURE
     1 V8R         1 TEMP              0 ****  ****    0 ROOT
