@<TRIPOS>MOLECULE
V8R
   51    54     1     0     0
SMALL
abcg2


@<TRIPOS>ATOM
      1 O30        -14.0150     6.8650    19.6010 o          1 V8R      -0.696500
      2 C25        -14.6960     5.8400    19.9010 c          1 V8R       0.715000
      3 O29        -15.5840     5.7590    20.7640 o          1 V8R      -0.696500
      4 C6         -14.3330     4.5960    19.0410 c6         1 V8R      -0.115700
      5 C1         -14.5550     4.9460    17.5500 c6         1 V8R       0.192300
      6 O27        -13.6010     5.9130    17.1560 oh         1 V8R      -0.752000
      7 N5         -15.0530     3.3800    19.3960 na         1 V8R      -0.102500
      8 C9         -15.2180     2.8350    20.6540 cc         1 V8R      -0.149000
      9 C8         -15.8310     1.6230    20.4710 cd         1 V8R       0.183300
     10 N7         -16.0390     1.4150    19.1180 nd         1 V8R      -0.711000
     11 C4         -15.5520     2.4780    18.5100 cc         1 V8R       0.343800
     12 C3         -15.5190     2.7080    17.0320 c6         1 V8R       0.118000
     13 O28        -15.2480     1.5080    16.3130 oh         1 V8R      -0.738000
     14 C2         -14.4330     3.7140    16.6680 c6         1 V8R       0.163300
     15 O26        -14.5590     4.1100    15.3080 oh         1 V8R      -0.646000
     16 C10        -16.2760     0.6370    21.4980 c3         1 V8R      -0.068700
     17 C11        -17.8120     0.5450    21.6150 c3         1 V8R      -0.040100
     18 C12        -18.2420    -0.4810    22.6290 ca         1 V8R      -0.045300
     19 C17        -18.3780    -1.8240    22.2740 ca         1 V8R      -0.122000
     20 C16        -18.7320    -2.7760    23.2250 ca         1 V8R      -0.099000
     21 C15        -18.9570    -2.4090    24.5460 ca         1 V8R      -0.158000
     22 C14        -18.8310    -1.0690    24.8950 ca         1 V8R       0.101100
     23 C13        -18.4770    -0.1130    23.9550 ca         1 V8R      -0.116000
     24 O18        -18.9830    -0.6480    26.2060 os         1 V8R      -0.260200
     25 C19        -20.0960    -1.0280    26.9240 ca         1 V8R       0.133100
     26 C24        -21.3350    -1.2490    26.3300 ca         1 V8R      -0.148000
     27 C23        -22.4250    -1.5740    27.1320 ca         1 V8R      -0.087500
     28 C22        -22.2870    -1.6710    28.5130 ca         1 V8R      -0.143000
     29 C21        -21.0430    -1.4390    29.0950 ca         1 V8R      -0.087500
     30 C20        -19.9450    -1.1200    28.3050 ca         1 V8R      -0.148000
     31 H6         -13.2630     4.4150    19.1740 h1         1 V8R       0.065700
     32 H1         -15.5720     5.3470    17.4300 h1         1 V8R       0.046700
     33 HO27       -13.5530     6.5210    17.9320 ho         1 V8R       0.565000
     34 H9         -14.9090     3.3540    21.5420 h4         1 V8R       0.174000
     35 H3         -16.4820     3.1200    16.7040 h1         1 V8R       0.055700
     36 HO28       -15.8840     0.8400    16.6010 ho         1 V8R       0.522000
     37 H2         -13.4530     3.2490    16.8380 h1         1 V8R       0.049700
     38 HO26       -14.5620     3.3060    14.7720 ho         1 V8R       0.438000
     39 H102       -15.8860    -0.3550    21.2480 hc         1 V8R       0.039200
     40 H101       -15.8570     0.9110    22.4690 hc         1 V8R       0.039200
     41 H111       -18.2030     1.5280    21.8880 hc         1 V8R       0.061200
     42 H112       -18.2220     0.2910    20.6360 hc         1 V8R       0.061200
     43 H17        -18.2070    -2.1240    21.2470 ha         1 V8R       0.120000
     44 H16        -18.8300    -3.8160    22.9370 ha         1 V8R       0.108000
     45 H15        -19.2320    -3.1440    25.2910 ha         1 V8R       0.118000
     46 H13        -18.3880     0.9220    24.2630 ha         1 V8R       0.134000
     47 H24        -21.4480    -1.1700    25.2580 ha         1 V8R       0.129000
     48 H23        -23.3880    -1.7460    26.6690 ha         1 V8R       0.110000
     49 H22        -23.1400    -1.9240    29.1300 ha         1 V8R       0.109000
     50 H21        -20.9230    -1.5110    30.1680 ha         1 V8R       0.110000
     51 H20        -18.9720    -0.9410    28.7430 ha         1 V8R       0.129000
@<TRIPOS>BOND
     1     1     2 1   
     2     2     3 1   
     3     2     4 1   
     4     4     5 1   
     5     4     7 1   
     6     4    31 1   
     7     5     6 1   
     8     5    14 1   
     9     5    32 1   
    10     6    33 1   
    11     7     8 1   
    12     7    11 1   
    13     8     9 2   
    14     8    34 1   
    15     9    10 1   
    16     9    16 1   
    17    10    11 2   
    18    11    12 1   
    19    12    13 1   
    20    12    14 1   
    21    12    35 1   
    22    13    36 1   
    23    14    15 1   
    24    14    37 1   
    25    15    38 1   
    26    16    17 1   
    27    16    39 1   
    28    16    40 1   
    29    17    18 1   
    30    17    41 1   
    31    17    42 1   
    32    18    19 ar  
    33    18    23 ar  
    34    19    20 ar  
    35    19    43 1   
    36    20    21 ar  
    37    20    44 1   
    38    21    22 ar  
    39    21    45 1   
    40    22    23 ar  
    41    22    24 1   
    42    23    46 1   
    43    24    25 1   
    44    25    26 ar  
    45    25    30 ar  
    46    26    27 ar  
    47    26    47 1   
    48    27    28 ar  
    49    27    48 1   
    50    28    29 ar  
    51    28    49 1   
    52    29    30 ar  
    53    29    50 1   
    54    30    51 1   
@<TRIPOS>SUBSTRUCTURE
     1 V8R         1 TEMP              0 ****  ****    0 ROOT
