@<TRIPOS>MOLECULE
V8T
   30    30     1     0     0
SMALL
No Charge or Current Charge


@<TRIPOS>ATOM
      1 C7          17.5490    12.2810   -41.0620 ca         1 V8T      -0.065000
      2 C8          13.7680    12.9110   -43.1400 c3         1 V8T       0.175300
      3 C9          13.2050    11.6140   -42.5160 c3         1 V8T      -0.105600
      4 C1          19.0900    12.8230   -39.0850 c3         1 V8T       0.205800
      5 C5          15.4480    13.4800   -41.3960 ca         1 V8T       0.147100
      6 C6          16.3740    12.4950   -41.8040 ca         1 V8T      -0.170500
      7 C4          15.7220    14.2490   -40.2550 ca         1 V8T      -0.170500
      8 C3          16.8970    14.0360   -39.5140 ca         1 V8T      -0.065000
      9 C2          17.8190    13.0460   -39.9070 ca         1 V8T      -0.107300
     10 N           20.2740    13.2780   -39.8270 n8         1 V8T      -0.985200
     11 C           19.2750    11.3570   -38.6470 c3         1 V8T      -0.124100
     12 O           14.2790    13.7470   -42.0830 os         1 V8T      -0.364100
     13 C10         12.6780    13.7270   -43.8600 c3         1 V8T      -0.105600
     14 H1          18.2520    11.5200   -41.3920 ha         1 V8T       0.108500
     15 H2          14.5500    12.6700   -43.8720 h1         1 V8T       0.042700
     16 H3          13.9950    11.0300   -42.0300 hc         1 V8T       0.046867
     17 H4          12.4370    11.8440   -41.7680 hc         1 V8T       0.046867
     18 H5          12.7510    10.9840   -43.2900 hc         1 V8T       0.046867
     19 H6          19.0210    13.4290   -38.1690 h1         1 V8T       0.061700
     20 H7          16.2050    11.8920   -42.6900 ha         1 V8T       0.120500
     21 H8          15.0170    15.0150   -39.9420 ha         1 V8T       0.120500
     22 H9          17.0880    14.6420   -38.6300 ha         1 V8T       0.108500
     23 H10         21.1140    13.0230   -39.2960 hn         1 V8T       0.389000
     24 H11         20.3510    12.7240   -40.6860 hn         1 V8T       0.389000
     25 H13         20.1400    11.2580   -37.9810 hc         1 V8T       0.038367
     26 H14         18.3890    11.0110   -38.1000 hc         1 V8T       0.038367
     27 H15         19.4260    10.6930   -39.5070 hc         1 V8T       0.038367
     28 H16         13.1030    14.6450   -44.2830 hc         1 V8T       0.046867
     29 H17         12.2420    13.1450   -44.6810 hc         1 V8T       0.046867
     30 H18         11.8740    14.0030   -43.1680 hc         1 V8T       0.046867
@<TRIPOS>BOND
     1     1     6 ar  
     2     1     9 ar  
     3     1    14 1   
     4     2     3 1   
     5     2    12 1   
     6     2    13 1   
     7     2    15 1   
     8     3    16 1   
     9     3    17 1   
    10     3    18 1   
    11     4     9 1   
    12     4    10 1   
    13     4    11 1   
    14     4    19 1   
    15     5     6 ar  
    16     5     7 ar  
    17     5    12 1   
    18     6    20 1   
    19     7     8 ar  
    20     7    21 1   
    21     8     9 ar  
    22     8    22 1   
    23    10    23 1   
    24    10    24 1   
    25    11    25 1   
    26    11    26 1   
    27    11    27 1   
    28    13    28 1   
    29    13    29 1   
    30    13    30 1   
@<TRIPOS>SUBSTRUCTURE
     1 V8T         1 TEMP              0 ****  ****    0 ROOT
