@<TRIPOS>MOLECULE
V8T
   30    30     1     0     0
SMALL
abcg2


@<TRIPOS>ATOM
      1 C7          17.5180    12.2970   -41.0590 ca         1 V8T      -0.065000
      2 C8          13.7900    12.9170   -43.0800 c3         1 V8T       0.175300
      3 C9          13.2360    11.5850   -42.5970 c3         1 V8T      -0.105600
      4 C1          19.1110    12.8390   -39.1600 c3         1 V8T       0.205800
      5 C5          15.4110    13.4350   -41.3390 ca         1 V8T       0.147100
      6 C6          16.3350    12.4810   -41.7690 ca         1 V8T      -0.170500
      7 C4          15.6970    14.1900   -40.1990 ca         1 V8T      -0.170500
      8 C3          16.8850    13.9950   -39.5100 ca         1 V8T      -0.065000
      9 C2          17.8200    13.0460   -39.9240 ca         1 V8T      -0.107300
     10 N           20.2640    13.2010   -40.0110 n8         1 V8T      -0.985200
     11 C           19.2110    11.4250   -38.5760 c3         1 V8T      -0.124100
     12 O           14.2310    13.7170   -41.9590 os         1 V8T      -0.364100
     13 C10         12.7490    13.7520   -43.8030 c3         1 V8T      -0.105600
     14 H1          18.2150    11.5450   -41.4120 ha         1 V8T       0.108500
     15 H2          14.6410    12.7550   -43.7460 h1         1 V8T       0.042700
     16 H3          13.9790    11.0200   -42.0340 hc         1 V8T       0.046867
     17 H4          12.3670    11.7530   -41.9570 hc         1 V8T       0.046867
     18 H5          12.9250    10.9820   -43.4520 hc         1 V8T       0.046867
     19 H6          19.1110    13.5470   -38.3280 h1         1 V8T       0.061700
     20 H7          16.1480    11.8730   -42.6410 ha         1 V8T       0.120500
     21 H8          14.9790    14.9300   -39.8690 ha         1 V8T       0.120500
     22 H9          17.0890    14.5940   -38.6300 ha         1 V8T       0.108500
     23 H10         21.1210    13.0520   -39.4850 hn         1 V8T       0.389000
     24 H11         20.3150    12.5610   -40.8000 hn         1 V8T       0.389000
     25 H13         20.1320    11.3210   -37.9960 hc         1 V8T       0.038367
     26 H14         18.3650    11.2100   -37.9190 hc         1 V8T       0.038367
     27 H15         19.2230    10.6770   -39.3720 hc         1 V8T       0.038367
     28 H16         13.1780    14.6990   -44.1360 hc         1 V8T       0.046867
     29 H17         12.3820    13.2110   -44.6760 hc         1 V8T       0.046867
     30 H18         11.9040    13.9610   -43.1440 hc         1 V8T       0.046867
@<TRIPOS>BOND
     1     1     6 ar  
     2     1     9 ar  
     3     1    14 1   
     4     2     3 1   
     5     2    12 1   
     6     2    13 1   
     7     2    15 1   
     8     3    16 1   
     9     3    17 1   
    10     3    18 1   
    11     4     9 1   
    12     4    10 1   
    13     4    11 1   
    14     4    19 1   
    15     5     6 ar  
    16     5     7 ar  
    17     5    12 1   
    18     6    20 1   
    19     7     8 ar  
    20     7    21 1   
    21     8     9 ar  
    22     8    22 1   
    23    10    23 1   
    24    10    24 1   
    25    11    25 1   
    26    11    26 1   
    27    11    27 1   
    28    13    28 1   
    29    13    29 1   
    30    13    30 1   
@<TRIPOS>SUBSTRUCTURE
     1 V8T         1 TEMP              0 ****  ****    0 ROOT
