@<TRIPOS>MOLECULE
V8W
   20    20     1     0     0
SMALL
bcc


@<TRIPOS>ATOM
      1 N7           0.5890    -1.0100    -0.3570 n7         1 V8W      -0.788200
      2 C3           0.0130    -0.0890     0.6160 c5         1 V8W       0.135500
      3 C1          -1.4240     0.3000     0.2750 c3         1 V8W       0.383300
      4 N2          -2.3600    -0.8060     0.2290 n8         1 V8W      -0.938800
      5 C4           1.0030     1.0950     0.6550 c5         1 V8W      -0.069400
      6 C5           2.2410     0.6090    -0.1180 c5         1 V8W      -0.078400
      7 C6           2.0320    -0.8970    -0.2170 c5         1 V8W       0.151800
      8 OXT         -1.4260     0.9640    -0.9600 oh         1 V8W      -0.575800
      9 H3          -0.0250    -0.5430     1.6190 h1         1 V8W       0.013700
     10 H61C         2.4120    -1.3840     0.6940 h1         1 V8W       0.033700
     11 H62C         2.5480    -1.3460    -1.0680 h1         1 V8W       0.033700
     12 H41C         0.5820     1.9890     0.1980 hc         1 V8W       0.050700
     13 H42C         1.2480     1.3510     1.6860 hc         1 V8W       0.050700
     14 H21N        -2.0050    -1.5490    -0.3640 hn         1 V8W       0.352300
     15 H22N        -2.4770    -1.2010     1.1540 hn         1 V8W       0.352300
     16 H51C         2.2690     1.0500    -1.1160 hc         1 V8W       0.051200
     17 H52C         3.1780     0.8610     0.3770 hc         1 V8W       0.051200
     18 HOXT        -2.3370     1.2090    -1.1500 ho         1 V8W       0.412000
     19 H1C         -1.7750     0.9630     1.0800 h2         1 V8W       0.033700
     20 H2           0.2860    -1.9590    -0.1860 hn         1 V8W       0.345800
@<TRIPOS>BOND
     1     1     2 1   
     2     1     7 1   
     3     1    20 1   
     4     2     3 1   
     5     2     5 1   
     6     2     9 1   
     7     3     4 1   
     8     3     8 1   
     9     3    19 1   
    10     4    14 1   
    11     4    15 1   
    12     5     6 1   
    13     5    12 1   
    14     5    13 1   
    15     6     7 1   
    16     6    16 1   
    17     6    17 1   
    18     7    10 1   
    19     7    11 1   
    20     8    18 1   
@<TRIPOS>SUBSTRUCTURE
     1 V8W         1 TEMP              0 ****  ****    0 ROOT
