@<TRIPOS>MOLECULE
V8W
   20    20     1     0     0
SMALL
No Charge or Current Charge


@<TRIPOS>ATOM
      1 N7           0.5260    -1.1930    -0.0490 n7         1 V8W      -0.843400
      2 C3          -0.0160    -0.0810     0.8140 c5         1 V8W       0.135500
      3 C1          -1.4080     0.4900     0.3200 c3         1 V8W       0.406500
      4 N2          -2.2610    -0.5490    -0.1720 n8         1 V8W      -1.049200
      5 C4           1.1270     0.9820     0.9030 c5         1 V8W      -0.069400
      6 C5           1.9960     0.6370    -0.3320 c5         1 V8W      -0.078400
      7 C6           1.9620    -0.9020    -0.2480 c5         1 V8W       0.151800
      8 OXT         -1.3550     1.1240    -0.8970 oh         1 V8W      -0.638000
      9 H3          -0.1900    -0.4810     1.8220 h1         1 V8W       0.013700
     10 H61C         2.5500    -1.2580     0.6110 h1         1 V8W       0.033700
     11 H62C         2.3550    -1.3850    -1.1540 h1         1 V8W       0.033700
     12 H41C         0.7570     2.0130     0.8830 hc         1 V8W       0.050700
     13 H42C         1.6980     0.8620     1.8310 hc         1 V8W       0.050700
     14 H21N        -1.5910    -1.2380    -0.5420 hn         1 V8W       0.407500
     15 H22N        -2.6390    -1.0400     0.6460 hn         1 V8W       0.407500
     16 H51C         1.5500     1.0020    -1.2650 hc         1 V8W       0.051200
     17 H52C         3.0120     1.0420    -0.2630 hc         1 V8W       0.051200
     18 HOXT        -2.0140     0.5540    -1.3450 ho         1 V8W       0.451000
     19 H1C         -1.9030     1.1280     1.0640 h2         1 V8W       0.033700
     20 H2           0.4170    -2.1010     0.4200 hn         1 V8W       0.401000
@<TRIPOS>BOND
     1     1     2 1   
     2     1     7 1   
     3     1    20 1   
     4     2     3 1   
     5     2     5 1   
     6     2     9 1   
     7     3     4 1   
     8     3     8 1   
     9     3    19 1   
    10     4    14 1   
    11     4    15 1   
    12     5     6 1   
    13     5    12 1   
    14     5    13 1   
    15     6     7 1   
    16     6    16 1   
    17     6    17 1   
    18     7    10 1   
    19     7    11 1   
    20     8    18 1   
@<TRIPOS>SUBSTRUCTURE
     1 V8W         1 TEMP              0 ****  ****    0 ROOT
