@<TRIPOS>MOLECULE
V8Y
   43    44     1     0     0
SMALL
abcg2


@<TRIPOS>ATOM
      1 CL1        -10.7580    19.5440    16.0980 cl         1 V8Y      -0.211000
      2 C1         -13.0370    23.5580    18.4150 ca         1 V8Y      -0.259500
      3 N1         -14.6210    25.6260    19.3190 n7         1 V8Y      -0.893300
      4 O1         -12.5410    26.1190    18.0710 o          1 V8Y      -0.531500
      5 S1         -13.0620    25.2180    19.0880 sy         1 V8Y       1.157600
      6 C2         -14.1750    22.8060    18.5190 ca         1 V8Y      -0.022000
      7 O2         -12.4280    25.1610    20.3940 o          1 V8Y      -0.531500
      8 C3         -14.2070    21.4920    18.0240 ca         1 V8Y      -0.128000
      9 O3         -18.8500    31.1950    22.4780 o          1 V8Y      -0.741500
     10 C4         -13.1020    20.9530    17.4350 ca         1 V8Y      -0.048000
     11 O4         -17.7800    30.1720    24.1460 o          1 V8Y      -0.741500
     12 C5         -10.7320    21.1550    16.7340 ca         1 V8Y       0.132000
     13 C6          -9.5710    21.8670    16.6510 ca         1 V8Y      -0.104000
     14 C7          -9.5270    23.1700    17.1720 ca         1 V8Y      -0.088000
     15 C8         -10.6280    23.7390    17.7490 ca         1 V8Y      -0.097000
     16 C9         -11.8480    23.0270    17.8340 ca         1 V8Y       0.055000
     17 C10        -11.9030    21.6940    17.3270 ca         1 V8Y      -0.047000
     18 C11        -15.5020    25.9030    18.1820 c3         1 V8Y       0.215800
     19 C12        -16.9110    26.1830    18.6770 c3         1 V8Y      -0.084400
     20 C13        -17.0350    27.4250    19.5500 c3         1 V8Y      -0.075400
     21 C14        -18.4800    27.7080    19.9470 c3         1 V8Y      -0.074400
     22 C15        -18.6730    28.9970    20.7410 c3         1 V8Y      -0.053400
     23 C16        -18.0080    28.9850    22.1090 c3         1 V8Y      -0.209400
     24 C17        -18.2410    30.2330    22.9860 c          1 V8Y       0.718000
     25 H17        -15.0510    25.1950    20.1290 hn         1 V8Y       0.499000
     26 H21        -15.0700    23.2030    18.9790 ha         1 V8Y       0.116000
     27 H3         -15.1180    20.9150    18.1080 ha         1 V8Y       0.119000
     28 H4         -13.1450    19.9440    17.0500 ha         1 V8Y       0.125000
     29 H6          -8.6910    21.4350    16.1940 ha         1 V8Y       0.128000
     30 H7          -8.6020    23.7270    17.1150 ha         1 V8Y       0.122000
     31 H8         -10.5420    24.7420    18.1360 ha         1 V8Y       0.140000
     32 H11        -15.1190    26.7730    17.6480 h1         1 V8Y       0.048700
     33 H8L        -15.5250    25.0650    17.4790 h1         1 V8Y       0.048700
     34 H12        -17.5440    26.2910    17.7930 hc         1 V8Y       0.035700
     35 H8M        -17.2900    25.3060    19.2130 hc         1 V8Y       0.035700
     36 H13        -16.4190    27.3150    20.4460 hc         1 V8Y       0.052200
     37 H8O        -16.6330    28.2880    19.0070 hc         1 V8Y       0.052200
     38 H14        -19.0880    27.7550    19.0370 hc         1 V8Y       0.014700
     39 H8N        -18.8680    26.8600    20.5230 hc         1 V8Y       0.014700
     40 H15        -18.2960    29.8390    20.1510 hc         1 V8Y       0.040700
     41 H8P        -19.7440    29.1750    20.8630 hc         1 V8Y       0.040700
     42 H16        -18.3410    28.1030    22.6690 hc         1 V8Y       0.015200
     43 H8Q        -16.9250    28.8560    22.0030 hc         1 V8Y       0.015200
@<TRIPOS>BOND
     1     1    12 1   
     2     2     5 1   
     3     2     6 ar  
     4     2    16 ar  
     5     3     5 1   
     6     3    18 1   
     7     3    25 1   
     8     4     5 2   
     9     5     7 2   
    10     6     8 ar  
    11     6    26 1   
    12     8    10 ar  
    13     8    27 1   
    14     9    24 1   
    15    10    17 ar  
    16    10    28 1   
    17    11    24 1   
    18    12    13 ar  
    19    12    17 ar  
    20    13    14 ar  
    21    13    29 1   
    22    14    15 ar  
    23    14    30 1   
    24    15    16 ar  
    25    15    31 1   
    26    16    17 ar  
    27    18    19 1   
    28    18    32 1   
    29    18    33 1   
    30    19    20 1   
    31    19    34 1   
    32    19    35 1   
    33    20    21 1   
    34    20    36 1   
    35    20    37 1   
    36    21    22 1   
    37    21    38 1   
    38    21    39 1   
    39    22    23 1   
    40    22    40 1   
    41    22    41 1   
    42    23    24 1   
    43    23    42 1   
    44    23    43 1   
@<TRIPOS>SUBSTRUCTURE
     1 V8Y         1 TEMP              0 ****  ****    0 ROOT
