@<TRIPOS>MOLECULE
V8Y
   43    44     1     0     0
SMALL
No Charge or Current Charge


@<TRIPOS>ATOM
      1 Cl1        -12.1060    24.6650    14.7170 cl         1 V8Y      -0.211000
      2 C1         -13.1830    22.8710    19.5390 ca         1 V8Y      -0.259500
      3 N1         -14.9120    23.9940    21.2900 n7         1 V8Y      -0.893300
      4 O1         -12.5180    23.8390    21.9430 o          1 V8Y      -0.531500
      5 S1         -13.5570    23.0250    21.3080 sy         1 V8Y       1.157600
      6 C2         -13.1690    21.5680    18.9970 ca         1 V8Y      -0.022000
      7 O2         -13.9870    21.7410    21.8640 o          1 V8Y      -0.531500
      8 C3         -12.9050    21.3620    17.6390 ca         1 V8Y      -0.128000
      9 O3         -15.0200    30.3630    17.6020 o          1 V8Y      -0.741500
     10 C4         -12.6580    22.4500    16.7950 ca         1 V8Y      -0.048000
     11 O4         -16.3920    31.4210    18.8800 o          1 V8Y      -0.741500
     12 C5         -12.4330    24.8700    16.4420 ca         1 V8Y       0.132000
     13 C6         -12.4550    26.1790    16.9420 ca         1 V8Y      -0.104000
     14 C7         -12.7100    26.4070    18.2980 ca         1 V8Y      -0.088000
     15 C8         -12.9420    25.3260    19.1610 ca         1 V8Y      -0.097000
     16 C9         -12.9310    23.9900    18.6860 ca         1 V8Y       0.055000
     17 C10        -12.6710    23.7680    17.3020 ca         1 V8Y      -0.047000
     18 C11        -16.0440    23.5840    20.4460 c3         1 V8Y       0.215800
     19 C12        -17.0940    24.7120    20.3860 c3         1 V8Y      -0.084400
     20 C13        -16.5880    25.9830    19.6610 c3         1 V8Y      -0.075400
     21 C14        -17.6590    27.0930    19.5530 c3         1 V8Y      -0.074400
     22 C15        -17.2140    28.3330    18.7390 c3         1 V8Y      -0.053400
     23 C16        -16.0310    29.1230    19.3560 c3         1 V8Y      -0.209400
     24 C17        -15.7800    30.4140    18.5560 c          1 V8Y       0.718000
     25 H17        -15.1920    23.9620    22.2680 hn         1 V8Y       0.499000
     26 H21        -13.3610    20.7010    19.6270 ha         1 V8Y       0.116000
     27 H3         -12.8960    20.3510    17.2370 ha         1 V8Y       0.119000
     28 H4         -12.4620    22.2500    15.7460 ha         1 V8Y       0.125000
     29 H6         -12.2760    27.0180    16.2750 ha         1 V8Y       0.128000
     30 H7         -12.7300    27.4240    18.6830 ha         1 V8Y       0.122000
     31 H8         -13.1370    25.5630    20.2000 ha         1 V8Y       0.140000
     32 H11        -15.7220    23.3730    19.4170 h1         1 V8Y       0.048700
     33 H8L        -16.5110    22.6700    20.8390 h1         1 V8Y       0.048700
     34 H12        -17.9790    24.3320    19.8600 hc         1 V8Y       0.035700
     35 H8M        -17.4170    24.9680    21.4030 hc         1 V8Y       0.035700
     36 H13        -15.7160    26.3750    20.1960 hc         1 V8Y       0.052200
     37 H8O        -16.2480    25.7110    18.6540 hc         1 V8Y       0.052200
     38 H14        -18.5550    26.6740    19.0780 hc         1 V8Y       0.014700
     39 H8N        -17.9570    27.4090    20.5610 hc         1 V8Y       0.014700
     40 H15        -16.9510    28.0220    17.7200 hc         1 V8Y       0.040700
     41 H8P        -18.0760    29.0060    18.6450 hc         1 V8Y       0.040700
     42 H16        -16.3320    29.3630    20.3840 hc         1 V8Y       0.015200
     43 H8Q        -15.1560    28.4650    19.2940 hc         1 V8Y       0.015200
@<TRIPOS>BOND
     1     1    12 1   
     2     2     5 1   
     3     2     6 ar  
     4     2    16 ar  
     5     3     5 1   
     6     3    18 1   
     7     3    25 1   
     8     4     5 2   
     9     5     7 2   
    10     6     8 ar  
    11     6    26 1   
    12     8    10 ar  
    13     8    27 1   
    14     9    24 1   
    15    10    17 ar  
    16    10    28 1   
    17    11    24 1   
    18    12    13 ar  
    19    12    17 ar  
    20    13    14 ar  
    21    13    29 1   
    22    14    15 ar  
    23    14    30 1   
    24    15    16 ar  
    25    15    31 1   
    26    16    17 ar  
    27    18    19 1   
    28    18    32 1   
    29    18    33 1   
    30    19    20 1   
    31    19    34 1   
    32    19    35 1   
    33    20    21 1   
    34    20    36 1   
    35    20    37 1   
    36    21    22 1   
    37    21    38 1   
    38    21    39 1   
    39    22    23 1   
    40    22    40 1   
    41    22    41 1   
    42    23    24 1   
    43    23    42 1   
    44    23    43 1   
@<TRIPOS>SUBSTRUCTURE
     1 V8Y         1 TEMP              0 ****  ****    0 ROOT
