@<TRIPOS>MOLECULE
V8Z
   39    39     1     0     0
SMALL
No Charge or Current Charge


@<TRIPOS>ATOM
      1 C10         -4.1960    12.6730   -68.1030 c2         1 V8Z      -0.114400
      2 C11         -4.6580    12.1540   -69.4540 c3         1 V8Z      -0.001000
      3 C12         -3.0190     9.4140   -66.8120 c2         1 V8Z      -0.211200
      4 C13         -3.5900     9.9480   -65.7110 c2         1 V8Z      -0.113400
      5 C14         -3.2230    11.3480   -65.2190 c3         1 V8Z      -0.034200
      6 C15         -4.3000    12.4170   -65.5450 c3         1 V8Z      -0.032200
      7 C1          -3.4040     8.1390   -67.5660 c3         1 V8Z      -0.029200
      8 C2          -3.5990     8.3600   -69.1050 c3         1 V8Z      -0.007800
      9 C3          -2.8970    13.4630   -68.1730 c3         1 V8Z      -0.050900
     10 C4          -4.7010     9.3080   -64.8850 c3         1 V8Z      -0.052900
     11 C5          -2.2180     8.4100   -69.8180 c3         1 V8Z      -0.081600
     12 C6          -4.4100     7.1830   -69.7040 c3         1 V8Z      -0.081600
     13 C7          -3.9320    10.8480   -69.6950 c2         1 V8Z      -0.222200
     14 C8          -4.3990     9.6490   -69.2980 c2         1 V8Z      -0.202200
     15 C9          -4.8080    12.2810   -66.9700 c2         1 V8Z      -0.215200
     16 H19         -4.4680    12.8760   -70.2590 hc         1 V8Z       0.048200
     17 H18         -5.7420    11.9830   -69.4440 hc         1 V8Z       0.048200
     18 H20         -2.2450     9.9870   -67.3220 ha         1 V8Z       0.165000
     19 H21         -3.0260    11.3440   -64.1400 hc         1 V8Z       0.042700
     20 H22         -2.2840    11.6680   -65.6890 hc         1 V8Z       0.042700
     21 H24         -3.8890    13.4170   -65.3630 hc         1 V8Z       0.042200
     22 H23         -5.1390    12.3070   -64.8460 hc         1 V8Z       0.042200
     23 H1          -4.3360     7.7290   -67.1640 hc         1 V8Z       0.044700
     24 H2          -2.6450     7.3640   -67.4010 hc         1 V8Z       0.044700
     25 H4          -2.5440    13.7850   -67.1870 hc         1 V8Z       0.037700
     26 H5          -2.0940    12.8680   -68.6240 hc         1 V8Z       0.037700
     27 H3          -3.0220    14.3670   -68.7810 hc         1 V8Z       0.037700
     28 H7          -4.4580     9.3370   -63.8170 hc         1 V8Z       0.037033
     29 H8          -5.6520     9.8360   -65.0230 hc         1 V8Z       0.037033
     30 H6          -4.8700     8.2570   -65.1360 hc         1 V8Z       0.037033
     31 H9          -1.5710     9.1890   -69.3990 hc         1 V8Z       0.034200
     32 H10         -1.6910     7.4540   -69.7140 hc         1 V8Z       0.034200
     33 H11         -2.3400     8.6090   -70.8900 hc         1 V8Z       0.034200
     34 H12         -5.3990     7.1050   -69.2370 hc         1 V8Z       0.034200
     35 H13         -4.5590     7.3220   -70.7820 hc         1 V8Z       0.034200
     36 H14         -3.8890     6.2290   -69.5530 hc         1 V8Z       0.034200
     37 H15         -2.9100    10.9760   -70.0500 ha         1 V8Z       0.169000
     38 H16         -5.4040     9.5900   -68.8780 ha         1 V8Z       0.164000
     39 H17         -5.7020    11.6600   -67.0380 ha         1 V8Z       0.165000
@<TRIPOS>BOND
     1     1     2 1   
     2     1     9 1   
     3     1    15 2   
     4     2    13 1   
     5     2    16 1   
     6     2    17 1   
     7     3     4 2   
     8     3     7 1   
     9     3    18 1   
    10     4     5 1   
    11     4    10 1   
    12     5     6 1   
    13     5    19 1   
    14     5    20 1   
    15     6    15 1   
    16     6    21 1   
    17     6    22 1   
    18     7     8 1   
    19     7    23 1   
    20     7    24 1   
    21     8    11 1   
    22     8    12 1   
    23     8    14 1   
    24     9    25 1   
    25     9    26 1   
    26     9    27 1   
    27    10    28 1   
    28    10    29 1   
    29    10    30 1   
    30    11    31 1   
    31    11    32 1   
    32    11    33 1   
    33    12    34 1   
    34    12    35 1   
    35    12    36 1   
    36    13    14 2   
    37    13    37 1   
    38    14    38 1   
    39    15    39 1   
@<TRIPOS>SUBSTRUCTURE
     1 V8Z         1 TEMP              0 ****  ****    0 ROOT
