@<TRIPOS>MOLECULE
V8Z
   39    39     1     0     0
SMALL
abcg2


@<TRIPOS>ATOM
      1 C10         -4.2120    12.6500   -68.0700 c2         1 V8Z      -0.114400
      2 C11         -4.7650    12.0990   -69.3690 c3         1 V8Z      -0.001000
      3 C12         -2.9850     9.3530   -66.7980 c2         1 V8Z      -0.211200
      4 C13         -3.6070     9.9440   -65.7740 c2         1 V8Z      -0.113400
      5 C14         -3.1460    11.2940   -65.2900 c3         1 V8Z      -0.034200
      6 C15         -4.1910    12.4090   -65.5410 c3         1 V8Z      -0.032200
      7 C1          -3.3940     8.1230   -67.5480 c3         1 V8Z      -0.029200
      8 C2          -3.5760     8.3870   -69.0740 c3         1 V8Z      -0.007800
      9 C3          -2.9280    13.4130   -68.1780 c3         1 V8Z      -0.050900
     10 C4          -4.8230     9.3980   -65.0840 c3         1 V8Z      -0.052900
     11 C5          -2.2140     8.5050   -69.7530 c3         1 V8Z      -0.081600
     12 C6          -4.3360     7.2050   -69.6840 c3         1 V8Z      -0.081600
     13 C7          -4.0040    10.8270   -69.6480 c2         1 V8Z      -0.222200
     14 C8          -4.3960     9.6430   -69.1900 c2         1 V8Z      -0.202200
     15 C9          -4.7780    12.2910   -66.9170 c2         1 V8Z      -0.215200
     16 H19         -4.6520    12.8180   -70.1850 hc         1 V8Z       0.048200
     17 H18         -5.8310    11.8840   -69.2610 hc         1 V8Z       0.048200
     18 H20         -2.1150     9.8680   -67.1980 ha         1 V8Z       0.165000
     19 H21         -2.9190    11.2650   -64.2180 hc         1 V8Z       0.042700
     20 H22         -2.2210    11.5640   -65.8050 hc         1 V8Z       0.042700
     21 H24         -3.7100    13.3760   -65.3760 hc         1 V8Z       0.042200
     22 H23         -4.9890    12.3370   -64.7990 hc         1 V8Z       0.042200
     23 H1          -4.3300     7.7220   -67.1530 hc         1 V8Z       0.044700
     24 H2          -2.6480     7.3260   -67.4330 hc         1 V8Z       0.044700
     25 H4          -2.5730    13.7860   -67.2190 hc         1 V8Z       0.037700
     26 H5          -2.1350    12.7890   -68.6010 hc         1 V8Z       0.037700
     27 H3          -3.0390    14.2670   -68.8510 hc         1 V8Z       0.037700
     28 H7          -4.6960     9.4320   -63.9990 hc         1 V8Z       0.037033
     29 H8          -5.7110     9.9960   -65.3080 hc         1 V8Z       0.037033
     30 H6          -5.0470     8.3690   -65.3570 hc         1 V8Z       0.037033
     31 H9          -1.6010     9.3000   -69.3280 hc         1 V8Z       0.034200
     32 H10         -1.6590     7.5710   -69.6510 hc         1 V8Z       0.034200
     33 H11         -2.3230     8.7110   -70.8200 hc         1 V8Z       0.034200
     34 H12         -5.3390     7.1160   -69.2610 hc         1 V8Z       0.034200
     35 H13         -4.4380     7.3210   -70.7640 hc         1 V8Z       0.034200
     36 H14         -3.8110     6.2660   -69.4950 hc         1 V8Z       0.034200
     37 H15         -3.0240    10.9400   -70.1000 ha         1 V8Z       0.169000
     38 H16         -5.3760     9.5800   -68.7160 ha         1 V8Z       0.164000
     39 H17         -5.6930    11.7070   -66.9780 ha         1 V8Z       0.165000
@<TRIPOS>BOND
     1     1     2 1   
     2     1     9 1   
     3     1    15 2   
     4     2    13 1   
     5     2    16 1   
     6     2    17 1   
     7     3     4 2   
     8     3     7 1   
     9     3    18 1   
    10     4     5 1   
    11     4    10 1   
    12     5     6 1   
    13     5    19 1   
    14     5    20 1   
    15     6    15 1   
    16     6    21 1   
    17     6    22 1   
    18     7     8 1   
    19     7    23 1   
    20     7    24 1   
    21     8    11 1   
    22     8    12 1   
    23     8    14 1   
    24     9    25 1   
    25     9    26 1   
    26     9    27 1   
    27    10    28 1   
    28    10    29 1   
    29    10    30 1   
    30    11    31 1   
    31    11    32 1   
    32    11    33 1   
    33    12    34 1   
    34    12    35 1   
    35    12    36 1   
    36    13    14 2   
    37    13    37 1   
    38    14    38 1   
    39    15    39 1   
@<TRIPOS>SUBSTRUCTURE
     1 V8Z         1 TEMP              0 ****  ****    0 ROOT
