@<TRIPOS>MOLECULE
V90
   49    50     1     0     0
SMALL
bcc


@<TRIPOS>ATOM
      1 F18          1.6820    -1.7790    -0.9510 f          1 V90      -0.127900
      2 C5           1.4480    -0.6520    -0.2720 ca         1 V90       0.080900
      3 C6           2.4700    -0.1340     0.4970 ca         1 V90       0.009900
      4 S12          4.0360    -0.9260     0.6190 ss         1 V90      -0.236000
      5 C13          4.7010    -0.5790    -1.0450 c3         1 V90       0.000700
      6 C14          6.1730    -0.9560    -1.0490 c3         1 V90       0.149400
      7 O15          6.6580    -0.7060    -2.3460 oh         1 V90      -0.594800
      8 C1           2.1900     0.9910     1.2580 ca         1 V90       0.107900
      9 F17          3.1090     1.5010     2.0720 f          1 V90      -0.101900
     10 C4           0.1690    -0.0920    -0.3780 ca         1 V90       0.222600
     11 C3          -0.0420     1.1050     0.3370 ca         1 V90      -0.281500
     12 S8          -1.4640     2.1590     0.0720 sy         1 V90       1.284200
     13 O10         -2.2010     1.7510    -1.1070 o          1 V90      -0.596300
     14 N11         -2.4040     1.7750     1.3710 n8         1 V90      -0.905700
     15 O9          -0.9670     3.5240     0.1040 o          1 V90      -0.596300
     16 C2           0.9540     1.5910     1.1800 ca         1 V90       0.177900
     17 F16          0.7350     2.6530     1.9510 f          1 V90      -0.107900
     18 N7          -0.7850    -0.7160    -1.1480 nu         1 V90      -0.713600
     19 C19         -1.9950    -1.2620    -0.5080 c3         1 V90       0.213500
     20 C26         -2.9750    -1.5960    -1.6250 c3         1 V90      -0.088900
     21 C25         -4.3870    -1.9880    -1.1900 c3         1 V90      -0.061900
     22 C24         -5.0020    -1.0960    -0.1000 c3         1 V90      -0.073400
     23 C23         -4.9920    -1.6870     1.3100 c3         1 V90      -0.072400
     24 C22         -3.6440    -1.9370     1.9870 c3         1 V90      -0.073400
     25 C21         -2.7410    -2.9800     1.3110 c3         1 V90      -0.061900
     26 C20         -1.6270    -2.4150     0.4260 c3         1 V90      -0.088900
     27 H1           4.1570    -1.1590    -1.7890 h1         1 V90       0.081200
     28 H2           4.5770     0.4830    -1.2560 h1         1 V90       0.081200
     29 H3           6.7010    -0.3630    -0.2930 h1         1 V90       0.031700
     30 H4           6.2840    -2.0110    -0.7700 h1         1 V90       0.031700
     31 H5           7.5860    -0.9560    -2.3730 ho         1 V90       0.410000
     32 H6          -2.0650     2.1640     2.2450 hn         1 V90       0.423300
     33 H7          -3.3750     2.0320     1.2210 hn         1 V90       0.423300
     34 H8          -0.3740    -1.4030    -1.7650 hn         1 V90       0.405800
     35 H9          -2.4300    -0.4660     0.0920 h1         1 V90       0.072700
     36 H10         -3.0430    -0.7060    -2.2550 hc         1 V90       0.047450
     37 H11         -2.5540    -2.3890    -2.2530 hc         1 V90       0.047450
     38 H12         -5.0140    -1.9450    -2.0840 hc         1 V90       0.039700
     39 H13         -4.4180    -3.0310    -0.8720 hc         1 V90       0.039700
     40 H14         -4.5170    -0.1130    -0.0970 hc         1 V90       0.040200
     41 H15         -6.0460    -0.8990    -0.3530 hc         1 V90       0.040200
     42 H16         -5.5720    -1.0220     1.9570 hc         1 V90       0.033700
     43 H17         -5.5470    -2.6320     1.2860 hc         1 V90       0.033700
     44 H18         -3.1080    -0.9910     2.1120 hc         1 V90       0.040200
     45 H19         -3.8630    -2.2780     3.0020 hc         1 V90       0.040200
     46 H20         -2.2490    -3.5770     2.0820 hc         1 V90       0.039700
     47 H21         -3.3570    -3.6920     0.7570 hc         1 V90       0.039700
     48 H22         -1.1790    -3.2260    -0.1590 hc         1 V90       0.047450
     49 H23         -0.8390    -2.0470     1.0920 hc         1 V90       0.047450
@<TRIPOS>BOND
     1     1     2 1   
     2     2     3 ar  
     3     2    10 ar  
     4     3     4 1   
     5     3     8 ar  
     6     4     5 1   
     7     5     6 1   
     8     5    27 1   
     9     5    28 1   
    10     6     7 1   
    11     6    29 1   
    12     6    30 1   
    13     7    31 1   
    14     8     9 1   
    15     8    16 ar  
    16    10    11 ar  
    17    10    18 1   
    18    11    12 1   
    19    11    16 ar  
    20    12    13 2   
    21    12    14 1   
    22    12    15 2   
    23    14    32 1   
    24    14    33 1   
    25    16    17 1   
    26    18    19 1   
    27    18    34 1   
    28    19    20 1   
    29    19    26 1   
    30    19    35 1   
    31    20    21 1   
    32    20    36 1   
    33    20    37 1   
    34    21    22 1   
    35    21    38 1   
    36    21    39 1   
    37    22    23 1   
    38    22    40 1   
    39    22    41 1   
    40    23    24 1   
    41    23    42 1   
    42    23    43 1   
    43    24    25 1   
    44    24    44 1   
    45    24    45 1   
    46    25    26 1   
    47    25    46 1   
    48    25    47 1   
    49    26    48 1   
    50    26    49 1   
@<TRIPOS>SUBSTRUCTURE
     1 V90         1 TEMP              0 ****  ****    0 ROOT
