@<TRIPOS>MOLECULE
V90
   49    50     1     0     0
SMALL
No Charge or Current Charge


@<TRIPOS>ATOM
      1 F18          1.6310    -1.6220    -0.8290 f          1 V90      -0.163000
      2 C5           1.4230    -0.4360    -0.2020 ca         1 V90       0.116000
      3 C6           2.4570     0.1090     0.5810 ca         1 V90      -0.117000
      4 S12          4.0410    -0.7220     0.7430 ss         1 V90      -0.157000
      5 C13          4.7030    -0.7290    -0.9840 c3         1 V90       0.048600
      6 C14          6.1090    -1.3570    -1.0230 c3         1 V90       0.172600
      7 O15          6.6120    -1.3490    -2.3670 oh         1 V90      -0.657000
      8 C1           2.2200     1.3080     1.2670 ca         1 V90       0.143000
      9 F17          3.1930     1.8370     2.0480 f          1 V90      -0.137000
     10 C4           0.1610     0.2100    -0.3180 ca         1 V90       0.361000
     11 C3          -0.0490     1.4560     0.3270 ca         1 V90      -0.281500
     12 S8          -1.5430     2.4470     0.1370 sy         1 V90       1.142600
     13 O10         -2.4600     1.9310    -0.8740 o          1 V90      -0.525500
     14 N11         -2.3360     2.1890     1.5400 n8         1 V90      -1.016100
     15 O9          -1.2340     3.8730     0.2040 o          1 V90      -0.525500
     16 C2           0.9890     1.9770     1.1390 ca         1 V90       0.213000
     17 F16          0.8250     3.1300     1.8300 f          1 V90      -0.143000
     18 N7          -0.8260    -0.4490    -1.0650 nu         1 V90      -0.907200
     19 C19         -1.9910    -1.1280    -0.4750 c3         1 V90       0.213500
     20 C26         -2.9890    -1.4300    -1.6230 c3         1 V90      -0.088900
     21 C25         -4.3830    -1.9920    -1.2400 c3         1 V90      -0.061900
     22 C24         -5.0690    -1.3280    -0.0180 c3         1 V90      -0.073400
     23 C23         -4.9680    -2.1160     1.3150 c3         1 V90      -0.072400
     24 C22         -3.5660    -2.2800     1.9590 c3         1 V90      -0.073400
     25 C21         -2.5570    -3.1430     1.1570 c3         1 V90      -0.061900
     26 C20         -1.5020    -2.3590     0.3370 c3         1 V90      -0.088900
     27 H1           4.0280    -1.3020    -1.6310 h1         1 V90       0.081200
     28 H2           4.7490     0.3040    -1.3490 h1         1 V90       0.081200
     29 H3           6.7760    -0.7870    -0.3630 h1         1 V90       0.031700
     30 H4           6.0540    -2.3850    -0.6420 h1         1 V90       0.031700
     31 H5           7.5070    -1.7570    -2.3400 ho         1 V90       0.449000
     32 H6          -2.3770     3.1390     1.9020 hn         1 V90       0.478500
     33 H7          -3.2810     2.0500     1.1930 hn         1 V90       0.478500
     34 H8          -0.4170    -0.9770    -1.8350 hn         1 V90       0.461000
     35 H9          -2.4760    -0.4350     0.2230 h1         1 V90       0.072700
     36 H10         -3.1600    -0.4940    -2.1700 hc         1 V90       0.047450
     37 H11         -2.5220    -2.1170    -2.3390 hc         1 V90       0.047450
     38 H12         -5.0350    -1.8480    -2.1110 hc         1 V90       0.039700
     39 H13         -4.3350    -3.0780    -1.1080 hc         1 V90       0.039700
     40 H14         -4.7090    -0.3020     0.1190 hc         1 V90       0.040200
     41 H15         -6.1370    -1.2330    -0.2510 hc         1 V90       0.040200
     42 H16         -5.6110    -1.6120     2.0470 hc         1 V90       0.033700
     43 H17         -5.4070    -3.1110     1.1710 hc         1 V90       0.033700
     44 H18         -3.1370    -1.2970     2.1890 hc         1 V90       0.040200
     45 H19         -3.7160    -2.7660     2.9310 hc         1 V90       0.040200
     46 H20         -2.0070    -3.7690     1.8700 hc         1 V90       0.039700
     47 H21         -3.0880    -3.8560     0.5170 hc         1 V90       0.039700
     48 H22         -0.9910    -3.0570    -0.3360 hc         1 V90       0.047450
     49 H23         -0.7440    -2.0140     1.0500 hc         1 V90       0.047450
@<TRIPOS>BOND
     1     1     2 1   
     2     2     3 ar  
     3     2    10 ar  
     4     3     4 1   
     5     3     8 ar  
     6     4     5 1   
     7     5     6 1   
     8     5    27 1   
     9     5    28 1   
    10     6     7 1   
    11     6    29 1   
    12     6    30 1   
    13     7    31 1   
    14     8     9 1   
    15     8    16 ar  
    16    10    11 ar  
    17    10    18 1   
    18    11    12 1   
    19    11    16 ar  
    20    12    13 2   
    21    12    14 1   
    22    12    15 2   
    23    14    32 1   
    24    14    33 1   
    25    16    17 1   
    26    18    19 1   
    27    18    34 1   
    28    19    20 1   
    29    19    26 1   
    30    19    35 1   
    31    20    21 1   
    32    20    36 1   
    33    20    37 1   
    34    21    22 1   
    35    21    38 1   
    36    21    39 1   
    37    22    23 1   
    38    22    40 1   
    39    22    41 1   
    40    23    24 1   
    41    23    42 1   
    42    23    43 1   
    43    24    25 1   
    44    24    44 1   
    45    24    45 1   
    46    25    26 1   
    47    25    46 1   
    48    25    47 1   
    49    26    48 1   
    50    26    49 1   
@<TRIPOS>SUBSTRUCTURE
     1 V90         1 TEMP              0 ****  ****    0 ROOT
