@<TRIPOS>MOLECULE
V91
   42    45     1     0     0
SMALL
No Charge or Current Charge


@<TRIPOS>ATOM
      1 C10        -35.7100    38.0220    -3.2250 c          1 V91       0.601100
      2 C13        -39.1430    31.9650    -7.3630 cy         1 V91       0.116000
      3 C15        -39.1600    33.3720    -8.9560 cy         1 V91       0.116000
      4 C21        -34.5020    40.1740    -2.4540 c5         1 V91      -0.110400
      5 C22        -33.3830    39.5870    -1.5350 c5         1 V91      -0.105400
      6 C01        -37.9780    34.9220    -6.1050 cc         1 V91      -0.343600
      7 C02        -39.1110    35.4870    -5.5550 cd         1 V91      -0.062000
      8 C03        -38.8220    36.5030    -4.6040 cd         1 V91      -0.226000
      9 C04        -37.4800    36.7210    -4.4210 cc         1 V91      -0.081400
     10 C11        -35.7160    39.2350    -2.2030 c5         1 V91       0.089500
     11 C14        -39.7420    31.9270    -8.8080 cy         1 V91      -0.147000
     12 C16        -41.2080    31.6740    -8.9980 cc         1 V91       0.430700
     13 C18        -43.6250    31.7240    -9.0260 cc         1 V91      -0.268000
     14 C19        -43.0640    30.6260    -9.6320 cd         1 V91       0.277900
     15 C23        -34.1080    38.5190    -0.6670 c5         1 V91       0.150800
     16 N07        -39.2510    33.4570    -7.4610 nj         1 V91      -0.402800
     17 N09        -37.0210    37.6830    -3.5240 ns         1 V91      -0.386100
     18 N20        -41.6770    30.5960    -9.6140 nd         1 V91      -0.630000
     19 N24        -35.5400    38.8750    -0.7620 n7         1 V91      -0.826400
     20 O08        -36.8130    33.4670    -7.4940 o          1 V91      -0.610100
     21 O12        -34.7340    37.4760    -3.7280 o          1 V91      -0.542100
     22 S05        -36.5140    35.6440    -5.4500 ss         1 V91       0.399000
     23 S17        -42.4080    32.7920    -8.3910 ss         1 V91      -0.027400
     24 H1         -39.7990    31.5380    -6.5960 h1         1 V91       0.065450
     25 H2         -38.1410    31.5240    -7.2870 h1         1 V91       0.065450
     26 H3         -38.1640    33.4040    -9.4150 h1         1 V91       0.065450
     27 H4         -39.8270    34.0760    -9.4660 h1         1 V91       0.065450
     28 H5         -34.7430    41.2010    -2.1550 hc         1 V91       0.054200
     29 H6         -34.2060    40.2160    -3.5090 hc         1 V91       0.054200
     30 H7         -32.5680    39.1370    -2.1130 hc         1 V91       0.056700
     31 H8         -32.9360    40.3710    -0.9120 hc         1 V91       0.056700
     32 H9         -40.1270    35.1980    -5.8100 ha         1 V91       0.130000
     33 H10        -39.5950    37.0520    -4.0740 ha         1 V91       0.129000
     34 H11        -36.6550    39.7880    -2.3530 h1         1 V91       0.067700
     35 H12        -39.2440    31.2010    -9.4590 hc         1 V91       0.074700
     36 H14        -44.6730    31.9690    -8.9140 h4         1 V91       0.163000
     37 H16        -43.6110    29.8170   -10.1020 h4         1 V91       0.045100
     38 H17        -33.9360    37.5120    -1.0720 h1         1 V91       0.055200
     39 H18        -33.7530    38.5180     0.3740 h1         1 V91       0.055200
     40 H19        -37.7130    38.2140    -3.0080 hn         1 V91       0.321500
     41 H20        -35.6930    39.7210    -0.1970 hn         1 V91       0.412000
     42 C06        -37.9180    33.8490    -7.1160 c          1 V91       0.654700
@<TRIPOS>BOND
     1     1    10 1   
     2     1    17 1   
     3     1    21 2   
     4     2    11 1   
     5     2    16 1   
     6     2    24 1   
     7     2    25 1   
     8     3    11 1   
     9     3    16 1   
    10     3    26 1   
    11     3    27 1   
    12     4     5 1   
    13     4    10 1   
    14     4    28 1   
    15     4    29 1   
    16     5    15 1   
    17     5    30 1   
    18     5    31 1   
    19     6     7 2   
    20     6    22 1   
    21     6    42 1   
    22     7     8 1   
    23     7    32 1   
    24     8     9 2   
    25     8    33 1   
    26     9    17 1   
    27     9    22 1   
    28    10    19 1   
    29    10    34 1   
    30    11    12 1   
    31    11    35 1   
    32    12    18 2   
    33    12    23 1   
    34    13    14 2   
    35    13    23 1   
    36    13    36 1   
    37    14    18 1   
    38    14    37 1   
    39    15    19 1   
    40    15    38 1   
    41    15    39 1   
    42    16    42 1   
    43    17    40 1   
    44    19    41 1   
    45    20    42 2   
@<TRIPOS>SUBSTRUCTURE
     1 V91         1 TEMP              0 ****  ****    0 ROOT
