@<TRIPOS>MOLECULE
V91
   42    45     1     0     0
SMALL
bcc


@<TRIPOS>ATOM
      1 C10        -36.0770    37.4770    -2.3950 c          1 V91       0.668100
      2 C13        -38.7660    32.0010    -7.9340 cy         1 V91       0.116000
      3 C15        -39.7260    33.9180    -7.9140 cy         1 V91       0.116000
      4 C21        -35.2110    39.8210    -2.5740 c5         1 V91      -0.110400
      5 C22        -33.7620    39.4260    -2.8470 c5         1 V91      -0.105400
      6 C01        -38.2880    34.6910    -5.3040 cc         1 V91      -0.198700
      7 C02        -39.2800    35.6310    -5.3390 cd         1 V91      -0.080000
      8 C03        -39.0190    36.7390    -4.5070 cd         1 V91      -0.244000
      9 C04        -37.8200    36.6240    -3.8520 cc         1 V91       0.063500
     10 C11        -35.6690    38.7110    -1.6080 c5         1 V91       0.089500
     11 C14        -39.6060    32.7900    -8.9700 cy         1 V91      -0.147000
     12 C16        -40.8870    32.1610    -9.3840 cc         1 V91       0.430700
     13 C18        -42.8190    31.3030   -10.5680 cc         1 V91      -0.206400
     14 C19        -42.8270    31.1460    -9.2190 cd         1 V91       0.343200
     15 C23        -33.3100    38.7370    -1.5430 c5         1 V91       0.150800
     16 N07        -38.9130    33.1140    -7.0130 nj         1 V91      -0.469800
     17 N09        -37.2950    37.5670    -2.9970 ns         1 V91      -0.453100
     18 N20        -41.7370    31.6330    -8.5620 nd         1 V91      -0.630000
     19 N24        -34.5230    38.4270    -0.7700 n7         1 V91      -0.771200
     20 O08        -37.2740    32.5960    -5.5730 o          1 V91      -0.610100
     21 O12        -35.3810    36.4900    -2.5330 o          1 V91      -0.542100
     22 S05        -37.0110    35.1510    -4.2260 ss         1 V91       0.109200
     23 S17        -41.3780    32.0980   -11.0370 ss         1 V91      -0.172300
     24 H1         -39.2190    31.0720    -7.5850 h1         1 V91       0.065450
     25 H2         -37.7360    31.8070    -8.2360 h1         1 V91       0.065450
     26 H3         -39.2710    34.8670    -8.2030 h1         1 V91       0.065450
     27 H4         -40.7430    34.0960    -7.5610 h1         1 V91       0.065450
     28 H5         -35.2610    40.7760    -2.0490 hc         1 V91       0.054200
     29 H6         -35.8160    39.9080    -3.4770 hc         1 V91       0.054200
     30 H7         -33.7070    38.7350    -3.6900 hc         1 V91       0.056700
     31 H8         -33.1390    40.2850    -3.0970 hc         1 V91       0.056700
     32 H9         -40.1860    35.5470    -5.9200 ha         1 V91       0.148000
     33 H10        -39.6790    37.5890    -4.3970 ha         1 V91       0.147000
     34 H11        -36.5180    39.0320    -0.9980 h1         1 V91       0.067700
     35 H12        -39.0230    33.0930    -9.8380 hc         1 V91       0.074700
     36 H14        -43.5650    30.9980   -11.2840 h4         1 V91       0.181000
     37 H16        -43.6220    30.6720    -8.6610 h4         1 V91       0.045100
     38 H17        -32.7460    37.8290    -1.7630 h1         1 V91       0.055200
     39 H18        -32.6560    39.3840    -0.9580 h1         1 V91       0.055200
     40 H19        -37.8560    38.3950    -2.8520 hn         1 V91       0.321500
     41 H20        -34.5680    39.0240     0.0430 hn         1 V91       0.356800
     42 C06        -38.1220    33.3940    -5.9670 c          1 V91       0.721700
@<TRIPOS>BOND
     1     1    10 1   
     2     1    17 1   
     3     1    21 2   
     4     2    11 1   
     5     2    16 1   
     6     2    24 1   
     7     2    25 1   
     8     3    11 1   
     9     3    16 1   
    10     3    26 1   
    11     3    27 1   
    12     4     5 1   
    13     4    10 1   
    14     4    28 1   
    15     4    29 1   
    16     5    15 1   
    17     5    30 1   
    18     5    31 1   
    19     6     7 2   
    20     6    22 1   
    21     6    42 1   
    22     7     8 1   
    23     7    32 1   
    24     8     9 2   
    25     8    33 1   
    26     9    17 1   
    27     9    22 1   
    28    10    19 1   
    29    10    34 1   
    30    11    12 1   
    31    11    35 1   
    32    12    18 2   
    33    12    23 1   
    34    13    14 2   
    35    13    23 1   
    36    13    36 1   
    37    14    18 1   
    38    14    37 1   
    39    15    19 1   
    40    15    38 1   
    41    15    39 1   
    42    16    42 1   
    43    17    40 1   
    44    19    41 1   
    45    20    42 2   
@<TRIPOS>SUBSTRUCTURE
     1 V91         1 TEMP              0 ****  ****    0 ROOT
