@<TRIPOS>MOLECULE
V92
   20    21     1     0     0
SMALL
abcg2


@<TRIPOS>ATOM
      1 N1          -2.9930    14.4060   -33.9990 ns         1 V92      -0.379100
      2 C2          -1.3130    16.2650   -35.1660 cc         1 V92       0.297900
      3 C4           0.2580    14.4170   -35.7370 ca         1 V92      -0.019000
      4 C5           0.5700    13.0750   -35.7090 ca         1 V92      -0.157000
      5 C6          -0.3110    12.1680   -35.1010 ca         1 V92      -0.035000
      6 C9          -3.4190    15.7100   -33.9740 c          1 V92       0.598200
      7 C1          -2.5070    16.6620   -34.5950 cd         1 V92      -0.239900
      8 C           -2.8880    18.0240   -34.5970 ch         1 V92       0.302700
      9 N           -3.1640    19.1450   -34.6170 n1         1 V92      -0.454000
     10 C8          -1.8180    13.9600   -34.5570 ca         1 V92       0.132600
     11 C3          -0.9380    14.8800   -35.1630 ca         1 V92      -0.161800
     12 O           -0.4550    17.1030   -35.7400 oh         1 V92      -0.514100
     13 C7          -1.4910    12.5990   -34.5300 ca         1 V92      -0.178000
     14 H           -3.6130    13.7300   -33.5710 hn         1 V92       0.336500
     15 H2           0.9260    15.1270   -36.2030 ha         1 V92       0.135000
     16 H3           1.4900    12.7210   -36.1540 ha         1 V92       0.126000
     17 H4          -0.0650    11.1140   -35.0770 ha         1 V92       0.122000
     18 H1          -0.7610    18.0240   -35.7160 ho         1 V92       0.497000
     19 H5          -2.1720    11.9000   -34.0610 ha         1 V92       0.126000
     20 O1          -4.4930    16.0240   -33.4610 o          1 V92      -0.536000
@<TRIPOS>BOND
     1     1     6 1   
     2     1    10 1   
     3     1    14 1   
     4     2     7 2   
     5     2    11 1   
     6     2    12 1   
     7     3     4 ar  
     8     3    11 ar  
     9     3    15 1   
    10     4     5 ar  
    11     4    16 1   
    12     5    13 ar  
    13     5    17 1   
    14     6     7 1   
    15     6    20 2   
    16     7     8 1   
    17     8     9 3   
    18    10    11 ar  
    19    10    13 ar  
    20    12    18 1   
    21    13    19 1   
@<TRIPOS>SUBSTRUCTURE
     1 V92         1 TEMP              0 ****  ****    0 ROOT
