@<TRIPOS>MOLECULE
V92
   20    21     1     0     0
SMALL
No Charge or Current Charge


@<TRIPOS>ATOM
      1 N1          -2.9900    14.4340   -34.0090 ns         1 V92      -0.379100
      2 C2          -1.2980    16.3040   -35.1860 cc         1 V92       0.297900
      3 C4           0.2700    14.4040   -35.7400 ca         1 V92      -0.019000
      4 C5           0.5800    13.0330   -35.7030 ca         1 V92      -0.157000
      5 C6          -0.3020    12.1220   -35.0990 ca         1 V92      -0.035000
      6 C9          -3.4200    15.7300   -33.9720 c          1 V92       0.598200
      7 C1          -2.4930    16.7010   -34.6080 cd         1 V92      -0.239900
      8 C           -2.9290    18.0490   -34.5750 ch         1 V92       0.302700
      9 N           -3.2520    19.1700   -34.5690 n1         1 V92      -0.454000
     10 C8          -1.8050    13.9570   -34.5700 ca         1 V92       0.132600
     11 C3          -0.9340    14.8800   -35.1690 ca         1 V92      -0.161800
     12 O           -0.4260    17.1500   -35.7750 oh         1 V92      -0.514100
     13 C7          -1.4980    12.5880   -34.5310 ca         1 V92      -0.178000
     14 H           -3.6050    13.7540   -33.5820 hn         1 V92       0.336500
     15 H2           0.9710    15.0880   -36.2140 ha         1 V92       0.135000
     16 H3           1.5090    12.6760   -36.1440 ha         1 V92       0.126000
     17 H4          -0.0590    11.0620   -35.0710 ha         1 V92       0.122000
     18 H1          -0.8080    18.0490   -35.7040 ho         1 V92       0.497000
     19 H5          -2.1830    11.8840   -34.0630 ha         1 V92       0.126000
     20 O1          -4.4860    16.0200   -33.4470 o          1 V92      -0.536000
@<TRIPOS>BOND
     1     1     6 1   
     2     1    10 1   
     3     1    14 1   
     4     2     7 2   
     5     2    11 1   
     6     2    12 1   
     7     3     4 ar  
     8     3    11 ar  
     9     3    15 1   
    10     4     5 ar  
    11     4    16 1   
    12     5    13 ar  
    13     5    17 1   
    14     6     7 1   
    15     6    20 2   
    16     7     8 1   
    17     8     9 3   
    18    10    11 ar  
    19    10    13 ar  
    20    12    18 1   
    21    13    19 1   
@<TRIPOS>SUBSTRUCTURE
     1 V92         1 TEMP              0 ****  ****    0 ROOT
