@<TRIPOS>MOLECULE
V95
   35    37     1     0     0
SMALL
abcg2


@<TRIPOS>ATOM
      1 C11         16.6250    10.7580    27.0390 ca         1 V95      -0.044000
      2 C12         16.3170    11.4570    25.8700 ca         1 V95      -0.168600
      3 C01         17.3660    10.5780    34.6850 c3         1 V95       0.169900
      4 C03         16.9360    11.1580    32.4550 c          1 V95       0.656100
      5 C06         16.3920    12.1440    30.2960 cc         1 V95       0.510400
      6 C08         16.0190    12.7620    28.3060 ca         1 V95       0.117400
      7 C09         16.4810    11.4350    28.2310 ca         1 V95      -0.099200
      8 C13         15.8510    12.7830    25.9330 ca         1 V95      -0.090000
      9 C14         15.6880    13.4430    27.1370 ca         1 V95      -0.078000
     10 C15         16.4300    10.7430    24.5760 c          1 V95       0.595300
     11 C17         16.6850    11.5260    23.3340 ca         1 V95      -0.165600
     12 C18         16.1000    11.1120    22.1380 ca         1 V95      -0.068000
     13 C19         16.3590    11.7940    20.9600 ca         1 V95      -0.122500
     14 C20         17.2330    12.8740    20.9590 ca         1 V95      -0.089000
     15 C21         17.8390    13.2770    22.1420 ca         1 V95      -0.122500
     16 C22         17.5590    12.6120    23.3270 ca         1 V95      -0.068000
     17 N05         16.4880    12.1780    31.6600 ns         1 V95      -0.404400
     18 N07         15.9750    13.1760    29.6090 nd         1 V95      -0.633100
     19 N10         16.7110    11.0710    29.5370 na         1 V95      -0.315600
     20 O02         16.9120    11.5290    33.7210 os         1 V95      -0.439100
     21 O04         17.2980    10.0790    32.0460 o          1 V95      -0.535000
     22 O16         16.3220     9.5320    24.5170 o          1 V95      -0.524100
     23 H111        16.9780     9.7350    27.0050 ha         1 V95       0.137000
     24 H012        17.2660    11.0680    35.6490 h1         1 V95       0.056700
     25 H011        16.7560     9.6760    34.6720 h1         1 V95       0.056700
     26 H013        18.4100    10.3140    34.5200 h1         1 V95       0.056700
     27 H131        15.5850    13.2970    25.0200 ha         1 V95       0.123000
     28 H141        15.3150    14.4570    27.1690 ha         1 V95       0.132000
     29 H181        15.4250    10.2660    22.1330 ha         1 V95       0.124000
     30 H191        15.8850    11.4800    20.0400 ha         1 V95       0.116500
     31 H201        17.4420    13.4010    20.0370 ha         1 V95       0.114000
     32 H211        18.5300    14.1100    22.1430 ha         1 V95       0.116500
     33 H221        18.0400    12.9310    24.2430 ha         1 V95       0.124000
     34 H051        16.2120    13.0500    32.0900 hn         1 V95       0.367500
     35 H101        17.0530    10.1860    29.8800 hn         1 V95       0.391000
@<TRIPOS>BOND
     1     1     2 ar  
     2     1     7 ar  
     3     1    23 1   
     4     2     8 ar  
     5     2    10 1   
     6     3    20 1   
     7     3    24 1   
     8     3    25 1   
     9     3    26 1   
    10     4    17 1   
    11     4    20 1   
    12     4    21 2   
    13     5    17 1   
    14     5    18 2   
    15     5    19 1   
    16     6     7 ar  
    17     6     9 ar  
    18     6    18 1   
    19     7    19 1   
    20     8     9 ar  
    21     8    27 1   
    22     9    28 1   
    23    10    11 1   
    24    10    22 2   
    25    11    12 ar  
    26    11    16 ar  
    27    12    13 ar  
    28    12    29 1   
    29    13    14 ar  
    30    13    30 1   
    31    14    15 ar  
    32    14    31 1   
    33    15    16 ar  
    34    15    32 1   
    35    16    33 1   
    36    17    34 1   
    37    19    35 1   
@<TRIPOS>SUBSTRUCTURE
     1 V95         1 TEMP              0 ****  ****    0 ROOT
