@<TRIPOS>MOLECULE
V95
   35    37     1     0     0
SMALL
No Charge or Current Charge


@<TRIPOS>ATOM
      1 C11         16.5710    10.7350    27.0190 ca         1 V95      -0.044000
      2 C12         16.2350    11.4270    25.8290 ca         1 V95      -0.168600
      3 C01         17.3650    10.6650    34.8340 c3         1 V95       0.169900
      4 C03         16.9820    11.1320    32.5110 c          1 V95       0.656100
      5 C06         16.4460    12.1020    30.3340 cc         1 V95       0.510400
      6 C08         16.0410    12.7230    28.3150 ca         1 V95       0.117400
      7 C09         16.4620    11.4280    28.2310 ca         1 V95      -0.099200
      8 C13         15.7800    12.7740    25.9130 ca         1 V95      -0.090000
      9 C14         15.6860    13.4300    27.1600 ca         1 V95      -0.078000
     10 C15         16.3250    10.7100    24.5000 c          1 V95       0.595300
     11 C17         16.6550    11.4990    23.2530 ca         1 V95      -0.165600
     12 C18         16.1390    11.0880    22.0040 ca         1 V95      -0.068000
     13 C19         16.4480    11.8030    20.8340 ca         1 V95      -0.122500
     14 C20         17.2840    12.9290    20.8960 ca         1 V95      -0.089000
     15 C21         17.8170    13.3360    22.1300 ca         1 V95      -0.122500
     16 C22         17.5090    12.6240    23.3020 ca         1 V95      -0.068000
     17 N05         16.5690    12.1330    31.6910 ns         1 V95      -0.404400
     18 N07         16.0230    13.1660    29.6350 nd         1 V95      -0.633100
     19 N10         16.7210    11.0240    29.5050 na         1 V95      -0.315600
     20 O02         16.9600    11.5800    33.7980 os         1 V95      -0.439100
     21 O04         17.3180    10.0130    32.1540 o          1 V95      -0.535000
     22 O16         16.1320     9.5000    24.4360 o          1 V95      -0.524100
     23 H111        16.9100     9.7010    26.9980 ha         1 V95       0.137000
     24 H012        17.3010    11.1480    35.8170 h1         1 V95       0.056700
     25 H011        16.7190     9.7780    34.8490 h1         1 V95       0.056700
     26 H013        18.4020    10.3360    34.6840 h1         1 V95       0.056700
     27 H131        15.4850    13.3120    25.0150 ha         1 V95       0.123000
     28 H141        15.3400    14.4580    27.2260 ha         1 V95       0.132000
     29 H181        15.4900    10.2160    21.9390 ha         1 V95       0.124000
     30 H191        16.0400    11.4830    19.8780 ha         1 V95       0.116500
     31 H201        17.5240    13.4820    19.9900 ha         1 V95       0.114000
     32 H211        18.4740    14.2020    22.1790 ha         1 V95       0.116500
     33 H221        17.9490    12.9440    24.2450 ha         1 V95       0.124000
     34 H051        16.3300    12.9920    32.1580 hn         1 V95       0.367500
     35 H101        17.0520    10.1190    29.8160 hn         1 V95       0.391000
@<TRIPOS>BOND
     1     1     2 ar  
     2     1     7 ar  
     3     1    23 1   
     4     2     8 ar  
     5     2    10 1   
     6     3    20 1   
     7     3    24 1   
     8     3    25 1   
     9     3    26 1   
    10     4    17 1   
    11     4    20 1   
    12     4    21 2   
    13     5    17 1   
    14     5    18 2   
    15     5    19 1   
    16     6     7 ar  
    17     6     9 ar  
    18     6    18 1   
    19     7    19 1   
    20     8     9 ar  
    21     8    27 1   
    22     9    28 1   
    23    10    11 1   
    24    10    22 2   
    25    11    12 ar  
    26    11    16 ar  
    27    12    13 ar  
    28    12    29 1   
    29    13    14 ar  
    30    13    30 1   
    31    14    15 ar  
    32    14    31 1   
    33    15    16 ar  
    34    15    32 1   
    35    16    33 1   
    36    17    34 1   
    37    19    35 1   
@<TRIPOS>SUBSTRUCTURE
     1 V95         1 TEMP              0 ****  ****    0 ROOT
