@<TRIPOS>MOLECULE
V96
   53    56     1     0     0
SMALL
abcg2


@<TRIPOS>ATOM
      1 N           20.3080    17.2970     4.0940 n8         1 V96      -0.985200
      2 CA          21.5360    16.7920     3.5080 c3         1 V96       0.030500
      3 C           21.7930    17.3770     2.0960 c          1 V96       0.719000
      4 OXT         20.9840    18.2200     1.6650 o          1 V96      -0.735000
      5 CB          21.5200    15.2540     3.4860 c3         1 V96       0.009900
      6 CG          20.4190    14.6590     2.6550 ca         1 V96      -0.076300
      7 CD1         19.2070    14.2820     3.2230 ca         1 V96      -0.030000
      8 CD2         20.5640    14.4770     1.2800 ca         1 V96      -0.057000
      9 O           22.8210    16.9640     1.5200 o          1 V96      -0.735000
     10 CAA          9.8390    14.7400     4.7870 ca         1 V96      -0.092600
     11 CAB          9.7610    13.4680     5.3590 ca         1 V96       0.111100
     12 CAC         10.8790    12.6480     5.4210 ca         1 V96      -0.193000
     13 CAD         12.0710    13.0710     4.8550 ca         1 V96      -0.159600
     14 CAE         12.1640    14.3330     4.2450 ca         1 V96      -0.151600
     15 CAF         11.0460    15.1870     4.2500 ca         1 V96      -0.027600
     16 CAG         13.2330    12.1750     4.9550 c          1 V96       0.617300
     17 CAH         14.4880    12.5980     4.3420 ca         1 V96      -0.149600
     18 CAI         14.5600    13.8250     3.6420 ca         1 V96      -0.250600
     19 CAJ         13.4020    14.7050     3.5470 c          1 V96       0.607300
     20 CAK         15.5920    11.7700     4.4340 ca         1 V96       0.039100
     21 CAL         16.8090    12.1590     3.8160 ca         1 V96       0.143100
     22 CAM         16.8950    13.3460     3.1160 cp         1 V96      -0.110000
     23 CAN         15.7610    14.1840     3.0240 ca         1 V96       0.222100
     24 CBA         18.1690    13.7410     2.4710 cp         1 V96      -0.101000
     25 CBE         19.5460    13.9430     0.5080 ca         1 V96      -0.167000
     26 CBF         18.3420    13.5680     1.0960 ca         1 V96       0.145100
     27 OAO         15.8980    15.3070     2.3330 oh         1 V96      -0.529100
     28 OAP         13.4690    15.7360     2.8700 o          1 V96      -0.520100
     29 OAR         10.5000    16.8690     2.6940 o          1 V96      -0.703000
     30 OAS         11.6490    17.4330     4.5320 o          1 V96      -0.703000
     31 OAU          8.5280    16.5140     5.6010 o          1 V96      -0.715500
     32 OAV          7.7230    15.2650     3.9260 o          1 V96      -0.715500
     33 OAW          8.5770    13.0910     5.8680 oh         1 V96      -0.511100
     34 OAX         13.1540    11.0980     5.5470 o          1 V96      -0.636100
     35 OAY         15.6070    10.5960     5.0640 oh         1 V96      -0.606100
     36 OAZ         17.8790    11.3700     3.8940 oh         1 V96      -0.527100
     37 OBM         17.3910    13.0410     0.2960 oh         1 V96      -0.557100
     38 H1          20.3720    17.2740     5.1030 hn         1 V96       0.380000
     39 H2          20.1860    18.2630     3.8230 hn         1 V96       0.380000
     40 H4          22.4210    17.0720     4.1040 h1         1 V96      -0.018300
     41 H6          21.4280    14.8960     4.5150 hc         1 V96       0.017700
     42 H7          22.4890    14.9060     3.1240 hc         1 V96       0.017700
     43 H8          19.0610    14.4070     4.2900 ha         1 V96       0.107000
     44 H9          21.4920    14.7610     0.8020 ha         1 V96       0.130000
     45 H10         10.8200    11.6750     5.8940 ha         1 V96       0.091000
     46 H11         19.6830    13.8040    -0.5580 ha         1 V96       0.101000
     47 H12         15.0140    15.7560     2.3490 ho         1 V96       0.528000
     48 H15          8.6360    12.2110     6.2570 ho         1 V96       0.415000
     49 H16         14.6990    10.4500     5.4240 ho         1 V96       0.519000
     50 H17         17.6780    10.5720     4.4030 ho         1 V96       0.469000
     51 H18         16.6470    12.7130     0.8150 ho         1 V96       0.463000
     52 CAQ         11.0880    16.6380     3.7630 c          1 V96       0.747600
     53 CAT          8.5750    15.5980     4.7640 c          1 V96       0.751600
@<TRIPOS>BOND
     1     1     2 1   
     2     1    38 1   
     3     1    39 1   
     4     2     3 1   
     5     2     5 1   
     6     2    40 1   
     7     3     4 1   
     8     3     9 1   
     9     5     6 1   
    10     5    41 1   
    11     5    42 1   
    12     6     7 ar  
    13     6     8 ar  
    14     7    24 ar  
    15     7    43 1   
    16     8    25 ar  
    17     8    44 1   
    18    10    11 ar  
    19    10    15 ar  
    20    10    53 1   
    21    11    12 ar  
    22    11    33 1   
    23    12    13 ar  
    24    12    45 1   
    25    13    14 ar  
    26    13    16 1   
    27    14    15 ar  
    28    14    19 1   
    29    15    52 1   
    30    16    17 1   
    31    16    34 2   
    32    17    18 ar  
    33    17    20 ar  
    34    18    19 1   
    35    18    23 ar  
    36    19    28 2   
    37    20    21 ar  
    38    20    35 1   
    39    21    22 ar  
    40    21    36 1   
    41    22    23 ar  
    42    22    24 1   
    43    23    27 1   
    44    24    26 ar  
    45    25    26 ar  
    46    25    46 1   
    47    26    37 1   
    48    27    47 1   
    49    29    52 1   
    50    30    52 1   
    51    31    53 1   
    52    32    53 1   
    53    33    48 1   
    54    35    49 1   
    55    36    50 1   
    56    37    51 1   
@<TRIPOS>SUBSTRUCTURE
     1 V96         1 TEMP              0 ****  ****    0 ROOT
