@<TRIPOS>MOLECULE
V96
   53    56     1     0     0
SMALL
No Charge or Current Charge


@<TRIPOS>ATOM
      1 N           20.6050    17.1110     4.4890 n8         1 V96      -0.985200
      2 CA          21.7610    16.6130     3.6540 c3         1 V96       0.030500
      3 C           22.0950    17.3870     2.3030 c          1 V96       0.719000
      4 OXT         21.2940    18.2070     1.8680 o          1 V96      -0.735000
      5 CB          21.6610    15.0800     3.4090 c3         1 V96       0.009900
      6 CG          20.4840    14.6550     2.5300 ca         1 V96      -0.076300
      7 CD1         19.2580    14.2780     3.1110 ca         1 V96      -0.030000
      8 CD2         20.6260    14.6050     1.1300 ca         1 V96      -0.057000
      9 O           23.1910    17.2020     1.7880 o          1 V96      -0.735000
     10 CAA          9.6620    14.6890     4.8600 ca         1 V96      -0.092600
     11 CAB          9.6960    13.5420     5.6660 ca         1 V96       0.111100
     12 CAC         10.8430    12.7450     5.7040 ca         1 V96      -0.193000
     13 CAD         11.9810    13.0650     4.9310 ca         1 V96      -0.159600
     14 CAE         11.9600    14.2100     4.0920 ca         1 V96      -0.151600
     15 CAF         10.7900    15.0380     4.0760 ca         1 V96      -0.027600
     16 CAG         13.2070    12.1830     5.0240 c          1 V96       0.617300
     17 CAH         14.4710    12.6240     4.3120 ca         1 V96      -0.149600
     18 CAI         14.4590    13.7500     3.4440 ca         1 V96      -0.250600
     19 CAJ         13.1670    14.5170     3.2180 c          1 V96       0.607300
     20 CAK         15.6840    11.9160     4.5020 ca         1 V96       0.039100
     21 CAL         16.8640    12.3210     3.8560 ca         1 V96       0.143100
     22 CAM         16.8790    13.4340     2.9870 cp         1 V96      -0.110000
     23 CAN         15.6620    14.1370     2.7880 ca         1 V96       0.222100
     24 CBA         18.1590    13.8580     2.3190 cp         1 V96      -0.101000
     25 CBE         19.5520    14.1910     0.3270 ca         1 V96      -0.167000
     26 CBF         18.3300    13.8230     0.9100 ca         1 V96       0.145100
     27 OAO         15.6660    15.2100     1.9460 oh         1 V96      -0.529100
     28 OAP         13.1080    15.3350     2.3080 o          1 V96      -0.520100
     29 OAR         10.0510    16.3040     2.2310 o          1 V96      -0.703000
     30 OAS         11.2590    17.3150     3.7080 o          1 V96      -0.703000
     31 OAU          8.4430    16.5810     5.5130 o          1 V96      -0.715500
     32 OAV          7.4790    15.2000     4.1640 o          1 V96      -0.715500
     33 OAW          8.6280    13.1960     6.4430 oh         1 V96      -0.511100
     34 OAX         13.1820    11.1350     5.6720 o          1 V96      -0.636100
     35 OAY         15.7310    10.8190     5.3240 oh         1 V96      -0.606100
     36 OAZ         17.9890    11.5820     4.0900 oh         1 V96      -0.527100
     37 OBM         17.3160    13.4200     0.0930 oh         1 V96      -0.557100
     38 H1          20.6460    16.6810     5.4200 hn         1 V96       0.380000
     39 H2          20.7330    18.1140     4.6710 hn         1 V96       0.380000
     40 H4          22.6400    16.7650     4.2950 h1         1 V96      -0.018300
     41 H6          21.6000    14.5710     4.3790 hc         1 V96       0.017700
     42 H7          22.5990    14.7320     2.9610 hc         1 V96       0.017700
     43 H8          19.1490    14.3060     4.1920 ha         1 V96       0.107000
     44 H9          21.5700    14.8840     0.6660 ha         1 V96       0.130000
     45 H10         10.8540    11.8690     6.3480 ha         1 V96       0.091000
     46 H11         19.6700    14.1540    -0.7530 ha         1 V96       0.101000
     47 H12         14.7300    15.5330     1.8930 ho         1 V96       0.528000
     48 H15          8.8530    12.3740     6.9260 ho         1 V96       0.415000
     49 H16         14.7980    10.6720     5.6460 ho         1 V96       0.519000
     50 H17         17.7000    10.8760     4.7110 ho         1 V96       0.469000
     51 H18         16.5000    13.4180     0.6370 ho         1 V96       0.463000
     52 CAQ         10.7070    16.3160     3.2650 c          1 V96       0.747600
     53 CAT          8.4320    15.5550     4.8470 c          1 V96       0.751600
@<TRIPOS>BOND
     1     1     2 1   
     2     1    38 1   
     3     1    39 1   
     4     2     3 1   
     5     2     5 1   
     6     2    40 1   
     7     3     4 1   
     8     3     9 1   
     9     5     6 1   
    10     5    41 1   
    11     5    42 1   
    12     6     7 ar  
    13     6     8 ar  
    14     7    24 ar  
    15     7    43 1   
    16     8    25 ar  
    17     8    44 1   
    18    10    11 ar  
    19    10    15 ar  
    20    10    53 1   
    21    11    12 ar  
    22    11    33 1   
    23    12    13 ar  
    24    12    45 1   
    25    13    14 ar  
    26    13    16 1   
    27    14    15 ar  
    28    14    19 1   
    29    15    52 1   
    30    16    17 1   
    31    16    34 2   
    32    17    18 ar  
    33    17    20 ar  
    34    18    19 1   
    35    18    23 ar  
    36    19    28 2   
    37    20    21 ar  
    38    20    35 1   
    39    21    22 ar  
    40    21    36 1   
    41    22    23 ar  
    42    22    24 1   
    43    23    27 1   
    44    24    26 ar  
    45    25    26 ar  
    46    25    46 1   
    47    26    37 1   
    48    27    47 1   
    49    29    52 1   
    50    30    52 1   
    51    31    53 1   
    52    32    53 1   
    53    33    48 1   
    54    35    49 1   
    55    36    50 1   
    56    37    51 1   
@<TRIPOS>SUBSTRUCTURE
     1 V96         1 TEMP              0 ****  ****    0 ROOT
