@<TRIPOS>MOLECULE
V97
   52    54     1     0     0
SMALL
bcc


@<TRIPOS>ATOM
      1 C9          26.0250   -11.9640   -23.1080 cc         1 V97       0.262300
      2 C8          25.4270   -13.2040   -23.2390 cd         1 V97      -0.291600
      3 C13         26.0520   -10.0680   -15.3550 cc         1 V97      -0.065700
      4 C6          27.0630   -13.7420   -21.6860 cc         1 V97      -0.076400
      5 C4          24.3220   -13.3240   -24.1450 c          1 V97       0.759100
      6 C2          24.6780   -10.9400   -24.5670 cd         1 V97       0.722800
      7 C14         24.7940   -10.5530   -15.5720 cd         1 V97      -0.137000
      8 C15         24.7880   -11.8070   -16.2300 cd         1 V97      -0.160000
      9 C16         26.0400   -12.2790   -16.5070 cc         1 V97      -0.102400
     10 C20         28.0730    -7.1380   -14.1000 c3         1 V97      -0.044300
     11 C21         29.6040    -7.1450   -14.0860 c3         1 V97      -0.049400
     12 C22         30.2430    -5.9660   -13.3740 c3         1 V97      -0.192400
     13 C23         31.7650    -6.0930   -13.1490 c          1 V97       0.923600
     14 C26         27.5200    -5.9230   -14.8910 c          1 V97       0.937600
     15 C30         27.9030   -14.4850   -20.6960 c3         1 V97       0.000900
     16 C31         27.2470   -14.6360   -19.3220 c3         1 V97      -0.071400
     17 C32         26.9870   -13.3180   -18.6060 c3         1 V97      -0.081400
     18 C33         26.4160   -13.5430   -17.2050 c3         1 V97       0.007900
     19 C7          26.0280   -14.2100   -22.4260 cd         1 V97      -0.081000
     20 N1          25.6910   -10.8310   -23.7450 nc         1 V97      -0.668100
     21 N11         24.2340    -9.8630   -25.2280 nv         1 V97      -0.943800
     22 N19         27.6420    -8.4040   -14.6630 ns         1 V97      -0.500900
     23 N3          24.0180   -12.1160   -24.7690 ns         1 V97      -0.516400
     24 O10         23.6770   -14.3290   -24.3900 o          1 V97      -0.633500
     25 O18         25.4600    -8.1490   -14.1410 o          1 V97      -0.616100
     26 O24         32.2680    -7.2340   -13.2040 o          1 V97      -0.872800
     27 O25         32.3680    -5.0290   -12.8980 o          1 V97      -0.872800
     28 O27         27.2710    -4.9040   -14.2180 o          1 V97      -0.841800
     29 O28         27.4180    -6.0620   -16.1240 o          1 V97      -0.841800
     30 S12         27.2360   -11.1720   -15.9570 ss         1 V97      -0.081800
     31 S5          27.3280   -12.0400   -21.9770 ss         1 V97      -0.018800
     32 H1          23.9010   -10.0260   -15.2710 ha         1 V97       0.165000
     33 H2          23.8900   -12.3510   -16.4880 ha         1 V97       0.129000
     34 H3          27.7170    -7.0790   -13.0670 h1         1 V97       0.051700
     35 H4          29.9360    -8.0680   -13.6050 hc         1 V97       0.023200
     36 H5          29.9620    -7.1950   -15.1200 hc         1 V97       0.023200
     37 H6          30.0410    -5.0330   -13.9040 hc         1 V97       0.034700
     38 H7          29.7750    -5.8420   -12.3890 hc         1 V97       0.034700
     39 H8          28.1050   -15.4800   -21.0990 hc         1 V97       0.046200
     40 H9          28.8760   -13.9990   -20.5850 hc         1 V97       0.046200
     41 H10         26.3060   -15.1820   -19.4320 hc         1 V97       0.036200
     42 H11         27.8960   -15.2610   -18.7020 hc         1 V97       0.036200
     43 H12         27.9180   -12.7450   -18.5400 hc         1 V97       0.054200
     44 H13         26.2870   -12.7060   -19.1810 hc         1 V97       0.054200
     45 H14         25.5180   -14.1620   -17.2720 hc         1 V97       0.036200
     46 H15         27.1360   -14.1070   -16.6050 hc         1 V97       0.036200
     47 H16         25.7020   -15.2400   -22.3980 ha         1 V97       0.156000
     48 H17         24.7850    -9.0230   -25.1840 hn         1 V97       0.446300
     49 H18         23.5750    -9.9390   -25.9840 hn         1 V97       0.446300
     50 H19         28.3090    -8.8920   -15.2400 hn         1 V97       0.294500
     51 H20         23.2400   -12.1380   -25.4170 hn         1 V97       0.314500
     52 C17         26.3590    -8.7870   -14.6770 c          1 V97       0.684700
@<TRIPOS>BOND
     1     1     2 2   
     2     1    20 1   
     3     1    31 1   
     4     2     5 1   
     5     2    19 1   
     6     3     7 2   
     7     3    30 1   
     8     3    52 1   
     9     4    15 1   
    10     4    19 2   
    11     4    31 1   
    12     5    23 1   
    13     5    24 2   
    14     6    20 2   
    15     6    21 1   
    16     6    23 1   
    17     7     8 1   
    18     7    32 1   
    19     8     9 2   
    20     8    33 1   
    21     9    18 1   
    22     9    30 1   
    23    10    11 1   
    24    10    14 1   
    25    10    22 1   
    26    10    34 1   
    27    11    12 1   
    28    11    35 1   
    29    11    36 1   
    30    12    13 1   
    31    12    37 1   
    32    12    38 1   
    33    13    26 1   
    34    13    27 1   
    35    14    28 1   
    36    14    29 1   
    37    15    16 1   
    38    15    39 1   
    39    15    40 1   
    40    16    17 1   
    41    16    41 1   
    42    16    42 1   
    43    17    18 1   
    44    17    43 1   
    45    17    44 1   
    46    18    45 1   
    47    18    46 1   
    48    19    47 1   
    49    21    48 1   
    50    21    49 1   
    51    22    50 1   
    52    22    52 1   
    53    23    51 1   
    54    25    52 2   
@<TRIPOS>SUBSTRUCTURE
     1 V97         1 TEMP              0 ****  ****    0 ROOT
