@<TRIPOS>MOLECULE
V97
   52    54     1     0     0
SMALL
No Charge or Current Charge


@<TRIPOS>ATOM
      1 C9          25.1780   -12.1170   -23.4570 cc         1 V97       0.117400
      2 C8          24.7510   -13.4190   -23.3460 cd         1 V97      -0.291600
      3 C13         26.8040    -9.7050   -15.7660 cc         1 V97      -0.210600
      4 C6          26.7840   -13.5760   -22.1820 cc         1 V97      -0.221300
      5 C4          23.4690   -13.8470   -23.9330 c          1 V97       0.616600
      6 C2          23.3150   -11.5880   -24.6220 cd         1 V97       0.722800
      7 C14         25.5290   -10.2000   -15.9050 cd         1 V97      -0.119000
      8 C15         25.4860   -11.4570   -16.5650 cd         1 V97      -0.142000
      9 C16         26.7210   -11.9290   -16.9340 cc         1 V97      -0.247300
     10 C20         29.1010    -6.9330   -14.4850 c3         1 V97      -0.044300
     11 C21         29.2050    -7.0790   -12.9430 c3         1 V97      -0.049400
     12 C22         29.7160    -5.8070   -12.2210 c3         1 V97      -0.192400
     13 C23         29.7140    -6.0190   -10.6970 c          1 V97       0.713000
     14 C26         30.4810    -6.6440   -15.1560 c          1 V97       0.727000
     15 C30         27.9380   -14.1400   -21.3950 c3         1 V97       0.000900
     16 C31         27.6230   -14.3300   -19.8950 c3         1 V97      -0.071400
     17 C32         27.3040   -13.0130   -19.1500 c3         1 V97      -0.081400
     18 C33         27.0410   -13.2180   -17.6440 c3         1 V97       0.007900
     19 C7          25.6660   -14.2410   -22.6230 cd         1 V97      -0.063000
     20 N1          24.4420   -11.1510   -24.1190 nc         1 V97      -0.668100
     21 N11         22.5920   -10.6890   -25.2680 nv         1 V97      -1.054200
     22 N19         28.4830    -8.1320   -15.0980 ns         1 V97      -0.433900
     23 N3          22.8260   -12.8350   -24.5590 ns         1 V97      -0.449400
     24 O10         23.0160   -14.9790   -23.8760 o          1 V97      -0.558000
     25 O18         26.2950    -7.6630   -14.6410 o          1 V97      -0.616100
     26 O24         28.7000    -5.7420   -10.0750 o          1 V97      -0.767500
     27 O25         30.7130    -6.4940   -10.1780 o          1 V97      -0.767500
     28 O27         30.6570    -5.5450   -15.6640 o          1 V97      -0.736500
     29 O28         31.2780    -7.5670   -15.2700 o          1 V97      -0.736500
     30 S12         27.9940   -10.8040   -16.4570 ss         1 V97       0.208000
     31 S5          26.7410   -11.8770   -22.6650 ss         1 V97       0.271000
     32 H1          24.6420    -9.6830   -15.5480 ha         1 V97       0.147000
     33 H2          24.5610   -11.9930   -16.7610 ha         1 V97       0.111000
     34 H3          28.4510    -6.0760   -14.7050 h1         1 V97       0.051700
     35 H4          28.2160    -7.3320   -12.5420 hc         1 V97       0.023200
     36 H5          29.8650    -7.9220   -12.7030 hc         1 V97       0.023200
     37 H6          30.7400    -5.6430   -12.5760 hc         1 V97       0.034700
     38 H7          29.0180    -5.0050   -12.4930 hc         1 V97       0.034700
     39 H8          28.2260   -15.1100   -21.8190 hc         1 V97       0.046200
     40 H9          28.8170   -13.4900   -21.4980 hc         1 V97       0.046200
     41 H10         26.7770   -15.0210   -19.7920 hc         1 V97       0.036200
     42 H11         28.4840   -14.8120   -19.4160 hc         1 V97       0.036200
     43 H12         28.1380   -12.3140   -19.2780 hc         1 V97       0.054200
     44 H13         26.4200   -12.5440   -19.5990 hc         1 V97       0.054200
     45 H14         26.2120   -13.9260   -17.5150 hc         1 V97       0.036200
     46 H15         27.9210   -13.6820   -17.1830 hc         1 V97       0.036200
     47 H16         25.4940   -15.2980   -22.4350 ha         1 V97       0.138000
     48 H17         23.0940    -9.8290   -25.4520 hn         1 V97       0.501500
     49 H18         22.0140   -11.0200   -26.0310 hn         1 V97       0.501500
     50 H19         29.1000    -8.8130   -15.5230 hn         1 V97       0.294500
     51 H20         21.9330   -13.0530   -24.9660 hn         1 V97       0.314500
     52 C17         27.1340    -8.4180   -15.1170 c          1 V97       0.617700
@<TRIPOS>BOND
     1     1     2 2   
     2     1    20 1   
     3     1    31 1   
     4     2     5 1   
     5     2    19 1   
     6     3     7 2   
     7     3    30 1   
     8     3    52 1   
     9     4    15 1   
    10     4    19 2   
    11     4    31 1   
    12     5    23 1   
    13     5    24 2   
    14     6    20 2   
    15     6    21 1   
    16     6    23 1   
    17     7     8 1   
    18     7    32 1   
    19     8     9 2   
    20     8    33 1   
    21     9    18 1   
    22     9    30 1   
    23    10    11 1   
    24    10    14 1   
    25    10    22 1   
    26    10    34 1   
    27    11    12 1   
    28    11    35 1   
    29    11    36 1   
    30    12    13 1   
    31    12    37 1   
    32    12    38 1   
    33    13    26 1   
    34    13    27 1   
    35    14    28 1   
    36    14    29 1   
    37    15    16 1   
    38    15    39 1   
    39    15    40 1   
    40    16    17 1   
    41    16    41 1   
    42    16    42 1   
    43    17    18 1   
    44    17    43 1   
    45    17    44 1   
    46    18    45 1   
    47    18    46 1   
    48    19    47 1   
    49    21    48 1   
    50    21    49 1   
    51    22    50 1   
    52    22    52 1   
    53    23    51 1   
    54    25    52 2   
@<TRIPOS>SUBSTRUCTURE
     1 V97         1 TEMP              0 ****  ****    0 ROOT
