@<TRIPOS>MOLECULE
V98
   79    83     1     0     0
SMALL
bcc


@<TRIPOS>ATOM
      1 CAK         -6.4640    -1.3780     0.0420 c6         1 V98      -0.068900
      2 CAL         -7.8560    -1.5230    -0.5550 c6         1 V98       0.160300
      3 NAM         -7.7860    -2.2470    -1.8120 n7         1 V98      -0.810200
      4 CAN         -6.9820    -1.5380    -2.7920 c6         1 V98       0.160300
      5 CAO         -5.5550    -1.3910    -2.2860 c6         1 V98      -0.068900
      6 CAJ         -5.5280    -0.6730    -0.9370 c6         1 V98      -0.082700
      7 CAI         -4.0960    -0.5870    -0.4260 c3         1 V98       0.229800
      8 NAH         -3.9570     0.0760     0.8730 n3         1 V98      -0.777500
      9 CAA         -3.7040    -0.7230     2.0740 c3         1 V98       0.273100
     10 CAB         -2.2500    -0.9220     2.4250 ca         1 V98      -0.132300
     11 CAC         -1.7170    -0.3250     3.5620 ca         1 V98      -0.110000
     12 CAD         -0.3780    -0.4910     3.8950 ca         1 V98      -0.137000
     13 CAE          0.4450    -1.2690     3.0930 ca         1 V98      -0.122000
     14 CAF         -0.0840    -1.8900     1.9680 ca         1 V98      -0.137000
     15 CAG         -1.4200    -1.7160     1.6360 ca         1 V98      -0.110000
     16 SAP         -3.7040     1.6920     0.8930 sy         1 V98       1.324200
     17 OAQ         -4.5810     2.2970    -0.0950 o          1 V98      -0.606800
     18 OAR         -3.7590     2.1280     2.2780 o          1 V98      -0.606800
     19 CAS         -2.0410     1.9430     0.3090 ca         1 V98      -0.239500
     20 CAX         -1.8040     2.0610    -1.0540 ca         1 V98      -0.054000
     21 CAW         -0.4990     2.1450    -1.5130 ca         1 V98      -0.060500
     22 CAT         -1.0000     1.9810     1.2250 ca         1 V98      -0.054000
     23 CAU          0.3020     2.0710     0.7690 ca         1 V98      -0.060500
     24 CAV          0.5430     2.1220    -0.5990 ca         1 V98      -0.247500
     25 SAY          2.2190     2.0360    -1.1800 sy         1 V98       1.305200
     26 OAZ          2.2140     2.3890    -2.5890 o          1 V98      -0.600300
     27 OBA          3.0530     2.7880    -0.2570 o          1 V98      -0.600300
     28 NBB          2.6510     0.4520    -1.0540 n3         1 V98      -0.747500
     29 CBE          2.0410    -0.5080    -1.9940 c5         1 V98       0.217500
     30 CBF          0.6680    -1.0590    -1.5310 c5         1 V98      -0.097400
     31 CBG          0.7490    -2.5790    -1.6940 c5         1 V98      -0.080400
     32 CBH          2.2240    -2.8920    -1.4670 c5         1 V98      -0.080400
     33 CBI          2.9240    -1.7570    -2.2090 c5         1 V98      -0.097400
     34 CBC          3.0720    -0.0410     0.2530 c3         1 V98       0.260100
     35 CBD          4.5170    -0.4700     0.2950 ca         1 V98      -0.090300
     36 CBJ          4.8850    -1.5900     1.0310 ca         1 V98      -0.106000
     37 CBK          6.2110    -1.9880     1.1200 ca         1 V98      -0.121500
     38 CBL          7.1780    -1.2500     0.4590 ca         1 V98       0.030400
     39 CL           8.8390    -1.7400     0.5510 cl         1 V98      -0.110400
     40 CBM          6.8380    -0.1250    -0.2780 ca         1 V98      -0.121500
     41 CBN          5.5090     0.2590    -0.3530 ca         1 V98      -0.106000
     42 H1          -6.5280    -0.8210     0.9790 hc         1 V98       0.044950
     43 H2          -6.0690    -2.3730     0.2790 hc         1 V98       0.044950
     44 H3          -8.5030    -2.0700     0.1330 h1         1 V98       0.032700
     45 H4          -8.2940    -0.5170    -0.6740 h1         1 V98       0.032700
     46 H5          -8.7190    -2.3820    -2.1760 hn         1 V98       0.356800
     47 H7          -6.9900    -2.0990    -3.7290 h1         1 V98       0.032700
     48 H8          -7.3820    -0.5350    -3.0150 h1         1 V98       0.032700
     49 H9          -5.1060    -2.3860    -2.1830 hc         1 V98       0.044950
     50 H10         -4.9600    -0.8440    -3.0220 hc         1 V98       0.044950
     51 H11         -5.8990     0.3460    -1.0920 hc         1 V98       0.076700
     52 H12         -3.6850    -1.5930    -0.3170 h1         1 V98       0.044700
     53 H13         -3.4630    -0.1010    -1.1750 h1         1 V98       0.044700
     54 H14         -4.2370    -0.2870     2.9170 h1         1 V98       0.073700
     55 H15         -4.1750    -1.6880     1.8880 h1         1 V98       0.073700
     56 H16         -2.3520     0.2880     4.1910 ha         1 V98       0.140000
     57 H17          0.0200    -0.0130     4.7800 ha         1 V98       0.135500
     58 H18          1.4870    -1.4050     3.3510 ha         1 V98       0.133000
     59 H19          0.5420    -2.5260     1.3540 ha         1 V98       0.135500
     60 H20         -1.8140    -2.2180     0.7590 ha         1 V98       0.140000
     61 H21         -2.6150     2.0870    -1.7680 ha         1 V98       0.159000
     62 H22         -0.3120     2.2170    -2.5750 ha         1 V98       0.156000
     63 H23         -1.1850     1.9380     2.2870 ha         1 V98       0.159000
     64 H24          1.1090     2.0970     1.4880 ha         1 V98       0.156000
     65 H25          1.9430     0.0150    -2.9420 h1         1 V98       0.084700
     66 H26          0.4890    -0.8030    -0.4840 hc         1 V98       0.055950
     67 H27         -0.1560    -0.6240    -2.0950 hc         1 V98       0.055950
     68 H28          0.0800    -3.1090    -1.0120 hc         1 V98       0.045950
     69 H29          0.4640    -2.8670    -2.7090 hc         1 V98       0.045950
     70 H30          2.4580    -2.8680    -0.3970 hc         1 V98       0.045950
     71 H31          2.5190    -3.8750    -1.8330 hc         1 V98       0.045950
     72 H32          2.9280    -1.9840    -3.2770 hc         1 V98       0.055950
     73 H33          3.9620    -1.6040    -1.9190 hc         1 V98       0.055950
     74 H34          2.9250     0.7200     1.0200 h1         1 V98       0.059200
     75 H35          2.4280    -0.8730     0.5480 h1         1 V98       0.059200
     76 H36          4.1300    -2.1740     1.5460 ha         1 V98       0.138000
     77 H37          6.4790    -2.8670     1.6900 ha         1 V98       0.149000
     78 H38          7.5990     0.4470    -0.7910 ha         1 V98       0.149000
     79 H39          5.2490     1.1340    -0.9330 ha         1 V98       0.138000
@<TRIPOS>BOND
     1     1     2 1   
     2     1     6 1   
     3     1    42 1   
     4     1    43 1   
     5     2     3 1   
     6     2    44 1   
     7     2    45 1   
     8     3     4 1   
     9     3    46 1   
    10     4     5 1   
    11     4    47 1   
    12     4    48 1   
    13     5     6 1   
    14     5    49 1   
    15     5    50 1   
    16     6     7 1   
    17     6    51 1   
    18     7     8 1   
    19     7    52 1   
    20     7    53 1   
    21     8     9 1   
    22     8    16 1   
    23     9    10 1   
    24     9    54 1   
    25     9    55 1   
    26    10    11 ar  
    27    10    15 ar  
    28    11    12 ar  
    29    11    56 1   
    30    12    13 ar  
    31    12    57 1   
    32    13    14 ar  
    33    13    58 1   
    34    14    15 ar  
    35    14    59 1   
    36    15    60 1   
    37    16    17 2   
    38    16    18 2   
    39    16    19 1   
    40    19    20 ar  
    41    19    22 ar  
    42    20    21 ar  
    43    20    61 1   
    44    21    24 ar  
    45    21    62 1   
    46    22    23 ar  
    47    22    63 1   
    48    23    24 ar  
    49    23    64 1   
    50    24    25 1   
    51    25    26 2   
    52    25    27 2   
    53    25    28 1   
    54    28    29 1   
    55    28    34 1   
    56    29    30 1   
    57    29    33 1   
    58    29    65 1   
    59    30    31 1   
    60    30    66 1   
    61    30    67 1   
    62    31    32 1   
    63    31    68 1   
    64    31    69 1   
    65    32    33 1   
    66    32    70 1   
    67    32    71 1   
    68    33    72 1   
    69    33    73 1   
    70    34    35 1   
    71    34    74 1   
    72    34    75 1   
    73    35    36 ar  
    74    35    41 ar  
    75    36    37 ar  
    76    36    76 1   
    77    37    38 ar  
    78    37    77 1   
    79    38    39 1   
    80    38    40 ar  
    81    40    41 ar  
    82    40    78 1   
    83    41    79 1   
@<TRIPOS>SUBSTRUCTURE
     1 V98         1 TEMP              0 ****  ****    0 ROOT
