@<TRIPOS>MOLECULE
V98
   79    83     1     0     0
SMALL
No Charge or Current Charge


@<TRIPOS>ATOM
      1 CAK         -6.0920    -1.2620    -0.5730 c6         1 V98      -0.068900
      2 CAL         -6.9860    -1.1850    -1.8360 c6         1 V98       0.160300
      3 NAM         -6.3860    -1.9300    -2.9690 n7         1 V98      -0.865400
      4 CAN         -5.0240    -1.4530    -3.3110 c6         1 V98       0.160300
      5 CAO         -4.0740    -1.5360    -2.0900 c6         1 V98      -0.068900
      6 CAJ         -4.6500    -0.7610    -0.8720 c6         1 V98      -0.082700
      7 CAI         -3.7160    -0.8880     0.3690 c3         1 V98       0.229800
      8 NAH         -4.1250    -0.1360     1.5800 n3         1 V98      -0.777500
      9 CAA         -3.7340    -0.7930     2.8550 c3         1 V98       0.273100
     10 CAB         -2.2350    -0.7880     3.1860 ca         1 V98      -0.132300
     11 CAC         -1.7640    -0.0490     4.2930 ca         1 V98      -0.092000
     12 CAD         -0.3950    -0.0360     4.6140 ca         1 V98      -0.119000
     13 CAE          0.5170    -0.7730     3.8410 ca         1 V98      -0.104000
     14 CAF          0.0560    -1.5370     2.7580 ca         1 V98      -0.119000
     15 CAG         -1.3120    -1.5530     2.4370 ca         1 V98      -0.092000
     16 SAP         -3.9750     1.5760     1.5290 sy         1 V98       1.182600
     17 OAQ         -5.0880     2.0600     0.7050 o          1 V98      -0.536000
     18 OAR         -3.8340     2.0240     2.9190 o          1 V98      -0.536000
     19 CAS         -2.3960     1.8520     0.6890 ca         1 V98      -0.239500
     20 CAX         -2.3420     2.0130    -0.7130 ca         1 V98      -0.036000
     21 CAW         -1.1010     2.1100    -1.3660 ca         1 V98      -0.042500
     22 CAT         -1.2000     1.8800     1.4320 ca         1 V98      -0.036000
     23 CAU          0.0390     1.9830     0.7830 ca         1 V98      -0.042500
     24 CAV          0.0970     2.0630    -0.6220 ca         1 V98      -0.247500
     25 SAY          1.6910     2.0190    -1.4610 sy         1 V98       1.163600
     26 OAZ          1.5270     2.2890    -2.8940 o          1 V98      -0.529500
     27 OBA          2.6760     2.7760    -0.6790 o          1 V98      -0.529500
     28 NBB          2.1310     0.3700    -1.3360 n3         1 V98      -0.747500
     29 CBE          1.3190    -0.6500    -2.0870 c5         1 V98       0.217500
     30 CBF          0.0780    -1.0950    -1.2350 c5         1 V98      -0.097400
     31 CBG          0.0180    -2.6260    -1.4650 c5         1 V98      -0.080400
     32 CBH          1.5160    -2.9960    -1.3510 c5         1 V98      -0.080400
     33 CBI          2.1480    -1.9600    -2.3220 c5         1 V98      -0.097400
     34 CBC          2.7840    -0.0220    -0.0490 c3         1 V98       0.260100
     35 CBD          4.2270    -0.5000    -0.2060 ca         1 V98      -0.090300
     36 CBJ          4.6560    -1.6750     0.4460 ca         1 V98      -0.088000
     37 CBK          5.9810    -2.1240     0.3030 ca         1 V98      -0.103500
     38 CBL          6.8850    -1.3990    -0.4890 ca         1 V98       0.122000
     39 Cl           8.5420    -1.9610    -0.6680 cl         1 V98      -0.202000
     40 CBM          6.4690    -0.2260    -1.1370 ca         1 V98      -0.103500
     41 CBN          5.1450     0.2240    -0.9950 ca         1 V98      -0.088000
     42 H1          -6.5440    -0.6620     0.2280 hc         1 V98       0.044950
     43 H2          -6.0620    -2.2980    -0.2090 hc         1 V98       0.044950
     44 H3          -7.9790    -1.5980    -1.6090 h1         1 V98       0.032700
     45 H4          -7.1220    -0.1310    -2.1230 h1         1 V98       0.032700
     46 H5          -6.9910    -1.8240    -3.7930 hn         1 V98       0.412000
     47 H7          -4.6190    -2.0580    -4.1350 h1         1 V98       0.032700
     48 H8          -5.0800    -0.4100    -3.6600 h1         1 V98       0.032700
     49 H9          -3.9130    -2.5900    -1.8250 hc         1 V98       0.044950
     50 H10         -3.0920    -1.1300    -2.3670 hc         1 V98       0.044950
     51 H11         -4.7040     0.2970    -1.1470 hc         1 V98       0.076700
     52 H12         -3.6930    -1.9600     0.6050 h1         1 V98       0.044700
     53 H13         -2.6930    -0.6230     0.0740 h1         1 V98       0.044700
     54 H14         -4.2840    -0.3400     3.6920 h1         1 V98       0.073700
     55 H15         -4.0640    -1.8410     2.8380 h1         1 V98       0.073700
     56 H16         -2.4580     0.5300     4.8990 ha         1 V98       0.122000
     57 H17         -0.0410     0.5470     5.4610 ha         1 V98       0.117500
     58 H18          1.5760    -0.7630     4.0890 ha         1 V98       0.115000
     59 H19          0.7570    -2.1240     2.1690 ha         1 V98       0.117500
     60 H20         -1.6480    -2.1680     1.6070 ha         1 V98       0.122000
     61 H21         -3.2530     2.0330    -1.3060 ha         1 V98       0.141000
     62 H22         -1.0770     2.1860    -2.4510 ha         1 V98       0.138000
     63 H23         -1.2200     1.8010     2.5140 ha         1 V98       0.141000
     64 H24          0.9500     1.9670     1.3780 ha         1 V98       0.138000
     65 H25          0.9960    -0.2580    -3.0620 h1         1 V98       0.084700
     66 H26          0.1660    -0.8630    -0.1690 hc         1 V98       0.055950
     67 H27         -0.8400    -0.6090    -1.5790 hc         1 V98       0.055950
     68 H28         -0.5990    -3.1370    -0.7160 hc         1 V98       0.045950
     69 H29         -0.3900    -2.8740    -2.4530 hc         1 V98       0.045950
     70 H30          1.8860    -2.8900    -0.3260 hc         1 V98       0.045950
     71 H31          1.7150    -4.0280    -1.6610 hc         1 V98       0.045950
     72 H32          2.0160    -2.2930    -3.3580 hc         1 V98       0.055950
     73 H33          3.2270    -1.8450    -2.1890 hc         1 V98       0.055950
     74 H34          2.8000     0.8030     0.6730 h1         1 V98       0.059200
     75 H35          2.2120    -0.8110     0.4510 h1         1 V98       0.059200
     76 H36          3.9630    -2.2440     1.0620 ha         1 V98       0.120000
     77 H37          6.3060    -3.0310     0.8050 ha         1 V98       0.131000
     78 H38          7.1720     0.3340    -1.7490 ha         1 V98       0.131000
     79 H39          4.8310     1.1320    -1.5030 ha         1 V98       0.120000
@<TRIPOS>BOND
     1     1     2 1   
     2     1     6 1   
     3     1    42 1   
     4     1    43 1   
     5     2     3 1   
     6     2    44 1   
     7     2    45 1   
     8     3     4 1   
     9     3    46 1   
    10     4     5 1   
    11     4    47 1   
    12     4    48 1   
    13     5     6 1   
    14     5    49 1   
    15     5    50 1   
    16     6     7 1   
    17     6    51 1   
    18     7     8 1   
    19     7    52 1   
    20     7    53 1   
    21     8     9 1   
    22     8    16 1   
    23     9    10 1   
    24     9    54 1   
    25     9    55 1   
    26    10    11 ar  
    27    10    15 ar  
    28    11    12 ar  
    29    11    56 1   
    30    12    13 ar  
    31    12    57 1   
    32    13    14 ar  
    33    13    58 1   
    34    14    15 ar  
    35    14    59 1   
    36    15    60 1   
    37    16    17 2   
    38    16    18 2   
    39    16    19 1   
    40    19    20 ar  
    41    19    22 ar  
    42    20    21 ar  
    43    20    61 1   
    44    21    24 ar  
    45    21    62 1   
    46    22    23 ar  
    47    22    63 1   
    48    23    24 ar  
    49    23    64 1   
    50    24    25 1   
    51    25    26 2   
    52    25    27 2   
    53    25    28 1   
    54    28    29 1   
    55    28    34 1   
    56    29    30 1   
    57    29    33 1   
    58    29    65 1   
    59    30    31 1   
    60    30    66 1   
    61    30    67 1   
    62    31    32 1   
    63    31    68 1   
    64    31    69 1   
    65    32    33 1   
    66    32    70 1   
    67    32    71 1   
    68    33    72 1   
    69    33    73 1   
    70    34    35 1   
    71    34    74 1   
    72    34    75 1   
    73    35    36 ar  
    74    35    41 ar  
    75    36    37 ar  
    76    36    76 1   
    77    37    38 ar  
    78    37    77 1   
    79    38    39 1   
    80    38    40 ar  
    81    40    41 ar  
    82    40    78 1   
    83    41    79 1   
@<TRIPOS>SUBSTRUCTURE
     1 V98         1 TEMP              0 ****  ****    0 ROOT
