@<TRIPOS>MOLECULE
V99
   23    23     1     0     0
SMALL
No Charge or Current Charge


@<TRIPOS>ATOM
      1 N1          16.8450     4.0460    18.2980 nc         1 V99      -0.380000
      2 N2          18.2700     4.5600    19.9700 na         1 V99      -0.210500
      3 C1          17.0930     3.2380    21.8460 c3         1 V99      -0.109700
      4 C5          18.6280     3.9990    15.3390 c3         1 V99      -0.086100
      5 N3          19.3810     5.1260    20.7110 nv         1 V99      -0.814500
      6 C4          18.2060     5.3830    15.8660 c3         1 V99       0.053600
      7 C3          17.9520     4.6920    18.6270 cd         1 V99       0.533800
      8 C2          17.2490     3.7370    20.4310 cd         1 V99       0.372800
      9 C           17.8820     1.9390    22.1160 c3         1 V99      -0.090100
     10 N           16.4010     3.4260    19.4530 nc         1 V99      -0.347000
     11 S           18.9230     5.7040    17.5420 ss         1 V99      -0.317300
     12 H1          17.4210     4.0100    22.5520 hc         1 V99       0.062700
     13 H2          16.0320     3.0590    22.0610 hc         1 V99       0.062700
     14 H3          18.2170     3.8340    14.3360 hc         1 V99       0.046367
     15 H4          19.7200     3.9260    15.2780 hc         1 V99       0.046367
     16 H5          18.2640     3.1980    15.9920 hc         1 V99       0.046367
     17 H6          19.0710     5.8080    21.4050 hn         1 V99       0.423500
     18 H7          20.0160     4.4000    21.0470 hn         1 V99       0.423500
     19 H8          18.5720     6.1550    15.1770 h1         1 V99       0.078200
     20 H9          17.1120     5.4590    15.9110 h1         1 V99       0.078200
     21 H10         17.7390     1.6120    23.1530 hc         1 V99       0.042367
     22 H11         17.5430     1.1350    21.4510 hc         1 V99       0.042367
     23 H12         18.9550     2.0950    21.9500 hc         1 V99       0.042367
@<TRIPOS>BOND
     1     1     7 2   
     2     1    10 1   
     3     2     5 1   
     4     2     7 1   
     5     2     8 1   
     6     3     8 1   
     7     3     9 1   
     8     3    12 1   
     9     3    13 1   
    10     4     6 1   
    11     4    14 1   
    12     4    15 1   
    13     4    16 1   
    14     5    17 1   
    15     5    18 1   
    16     6    11 1   
    17     6    19 1   
    18     6    20 1   
    19     7    11 1   
    20     8    10 2   
    21     9    21 1   
    22     9    22 1   
    23     9    23 1   
@<TRIPOS>SUBSTRUCTURE
     1 V99         1 TEMP              0 ****  ****    0 ROOT
