@<TRIPOS>MOLECULE
V99
   23    23     1     0     0
SMALL
abcg2


@<TRIPOS>ATOM
      1 N1          16.8570     4.0480    18.2730 nc         1 V99      -0.380000
      2 N2          18.2200     4.4930    19.9300 na         1 V99      -0.210500
      3 C1          17.0860     3.2500    21.8220 c3         1 V99      -0.109700
      4 C5          18.5920     3.9920    15.3600 c3         1 V99      -0.086100
      5 N3          19.3010     5.0710    20.5980 nv         1 V99      -0.814500
      6 C4          18.2720     5.3530    15.9590 c3         1 V99       0.053600
      7 C3          17.9610     4.6720    18.5990 cd         1 V99       0.533800
      8 C2          17.1920     3.7170    20.4140 cd         1 V99       0.372800
      9 C           17.9590     2.0200    22.1100 c3         1 V99      -0.090100
     10 N           16.3720     3.4420    19.4340 nc         1 V99      -0.347000
     11 S           19.0200     5.6370    17.6030 ss         1 V99      -0.317300
     12 H1          17.3600     4.0670    22.4940 hc         1 V99       0.062700
     13 H2          16.0380     3.0140    22.0090 hc         1 V99       0.062700
     14 H3          18.1330     3.9110    14.3720 hc         1 V99       0.046367
     15 H4          19.6690     3.8570    15.2500 hc         1 V99       0.046367
     16 H5          18.2020     3.1880    15.9830 hc         1 V99       0.046367
     17 H6          18.9560     5.6610    21.3470 hn         1 V99       0.423500
     18 H7          19.8860     4.3410    20.9910 hn         1 V99       0.423500
     19 H8          18.6880     6.1590    15.3550 h1         1 V99       0.078200
     20 H9          17.2000     5.5170    16.0500 h1         1 V99       0.078200
     21 H10         17.8400     1.7130    23.1510 hc         1 V99       0.042367
     22 H11         17.6690     1.1860    21.4690 hc         1 V99       0.042367
     23 H12         19.0150     2.2320    21.9380 hc         1 V99       0.042367
@<TRIPOS>BOND
     1     1     7 2   
     2     1    10 1   
     3     2     5 1   
     4     2     7 1   
     5     2     8 1   
     6     3     8 1   
     7     3     9 1   
     8     3    12 1   
     9     3    13 1   
    10     4     6 1   
    11     4    14 1   
    12     4    15 1   
    13     4    16 1   
    14     5    17 1   
    15     5    18 1   
    16     6    11 1   
    17     6    19 1   
    18     6    20 1   
    19     7    11 1   
    20     8    10 2   
    21     9    21 1   
    22     9    22 1   
    23     9    23 1   
@<TRIPOS>SUBSTRUCTURE
     1 V99         1 TEMP              0 ****  ****    0 ROOT
