@<TRIPOS>MOLECULE
V9A
   52    54     1     0     0
SMALL
bcc


@<TRIPOS>ATOM
      1 O25        -30.9090     9.9180    37.9320 o          1 V9A      -0.865300
      2 C26        -27.0950     6.2310    34.6630 c          1 V9A       0.929600
      3 C30        -28.2610    13.0420    29.1480 c3         1 V9A      -0.003100
      4 C32        -26.8150    12.4820    31.1860 c3         1 V9A      -0.080400
      5 C31        -27.6610    13.5250    30.4710 c3         1 V9A      -0.071400
      6 C20        -27.3580     7.4490    35.5970 c3         1 V9A      -0.050300
      7 C16        -25.4230    12.0440    33.2430 cc         1 V9A       0.225000
      8 C22        -29.1570     8.7000    36.9050 c3         1 V9A      -0.204400
      9 C21        -28.8530     7.6270    35.8700 c3         1 V9A      -0.055400
     10 C13        -25.1130    10.2090    34.3950 cc         1 V9A       0.238200
     11 C8         -25.6220    12.9850    26.4530 cc         1 V9A      -0.286600
     12 C9         -25.5930    11.6090    26.5920 cd         1 V9A       0.250300
     13 C4         -24.7450    13.5790    25.4870 c          1 V9A       0.758100
     14 C14        -23.8890    10.7780    34.2520 cd         1 V9A      -0.253300
     15 C15        -24.0900    11.9690    33.5020 cd         1 V9A      -0.287300
     16 C2         -24.0300    11.2840    25.0280 cc         1 V9A       0.716800
     17 C23        -30.6480     8.9100    37.2410 c          1 V9A       0.923600
     18 C6         -27.2340    12.7430    28.1020 cd         1 V9A      -0.068400
     19 C7         -26.5610    13.6190    27.3170 cc         1 V9A      -0.088000
     20 N1         -24.8250    10.7410    25.9150 nd         1 V9A      -0.667100
     21 N19        -26.8200     8.6840    35.0720 ns         1 V9A      -0.477900
     22 N3         -23.9800    12.6300    24.8130 ns         1 V9A      -0.517400
     23 O12        -26.0450    10.9770    33.7820 os         1 V9A      -0.311800
     24 O18        -24.6620     8.2990    35.6570 o          1 V9A      -0.634100
     25 O24        -31.4660     8.0680    36.8190 o          1 V9A      -0.865300
     26 O28        -26.6390     6.4580    33.5290 o          1 V9A      -0.844300
     27 S5         -26.7250    11.1020    27.7940 ss         1 V9A      -0.003800
     28 H2         -28.9270    13.8160    28.7610 hc         1 V9A       0.051200
     29 H3         -28.8880    12.1650    29.3300 hc         1 V9A       0.051200
     30 H4         -27.4200    11.5920    31.3800 hc         1 V9A       0.058200
     31 H5         -25.9850    12.1630    30.5500 hc         1 V9A       0.058200
     32 H6         -27.0630    14.4210    30.2840 hc         1 V9A       0.037700
     33 H7         -28.4820    13.8340    31.1260 hc         1 V9A       0.037700
     34 H10        -26.8620     7.2460    36.5510 h1         1 V9A       0.055700
     35 H11        -28.6350     8.4530    37.8380 hc         1 V9A       0.011200
     36 H12        -28.7390     9.6620    36.5960 hc         1 V9A       0.011200
     37 H13        -29.3630     7.8560    34.9270 hc         1 V9A       0.050700
     38 H14        -29.2480     6.6690    36.2040 hc         1 V9A       0.050700
     39 H15        -22.9570    10.3950    34.6350 ha         1 V9A       0.162000
     40 H16        -23.3440    12.6840    33.1950 ha         1 V9A       0.134000
     41 H17        -26.7280    14.6870    27.3490 ha         1 V9A       0.157000
     42 H20        -27.4300     9.2370    34.4900 hn         1 V9A       0.309500
     43 H21        -23.3460    12.9920    24.1100 hn         1 V9A       0.312500
     44 C17        -25.5140     8.9730    35.0860 c          1 V9A       0.584600
     45 N11        -23.2470    10.5070    24.2690 nv         1 V9A      -0.948800
     46 O27        -27.3880     5.1250    35.1580 o          1 V9A      -0.844300
     47 C33        -26.2520    13.0250    32.5020 c3         1 V9A      -0.094700
     48 O10        -24.6280    14.7650    25.2300 o          1 V9A      -0.634500
     49 H8         -25.6300    13.9000    32.2980 hc         1 V9A       0.046700
     50 H18        -23.1860     9.5300    24.5020 hn         1 V9A       0.444300
     51 H19        -22.5090    10.8880    23.7030 hn         1 V9A       0.444300
     52 H9         -27.0740    13.3680    33.1380 hc         1 V9A       0.046700
@<TRIPOS>BOND
     1     1    17 1   
     2     2     6 1   
     3     2    26 1   
     4     2    46 1   
     5     3     5 1   
     6     3    18 1   
     7     3    28 1   
     8     3    29 1   
     9     4     5 1   
    10     4    30 1   
    11     4    31 1   
    12     4    47 1   
    13     5    32 1   
    14     5    33 1   
    15     6     9 1   
    16     6    21 1   
    17     6    34 1   
    18     7    15 2   
    19     7    23 1   
    20     7    47 1   
    21     8     9 1   
    22     8    17 1   
    23     8    35 1   
    24     8    36 1   
    25     9    37 1   
    26     9    38 1   
    27    10    14 2   
    28    10    23 1   
    29    10    44 1   
    30    11    12 2   
    31    11    13 1   
    32    11    19 1   
    33    12    20 1   
    34    12    27 1   
    35    13    22 1   
    36    13    48 2   
    37    14    15 1   
    38    14    39 1   
    39    15    40 1   
    40    16    20 2   
    41    16    22 1   
    42    16    45 1   
    43    17    25 1   
    44    18    19 2   
    45    18    27 1   
    46    19    41 1   
    47    21    42 1   
    48    21    44 1   
    49    22    43 1   
    50    24    44 2   
    51    45    50 1   
    52    45    51 1   
    53    47    49 1   
    54    47    52 1   
@<TRIPOS>SUBSTRUCTURE
     1 V9A         1 TEMP              0 ****  ****    0 ROOT
