@<TRIPOS>MOLECULE
V9A
   52    54     1     0     0
SMALL
No Charge or Current Charge


@<TRIPOS>ATOM
      1 O25        -29.2670     9.4550    39.2950 o          1 V9A      -0.760000
      2 C26        -29.0820     6.6560    34.3290 c          1 V9A       0.719000
      3 C30        -28.2460    13.0950    28.4870 c3         1 V9A      -0.003100
      4 C32        -27.1190    12.5280    30.7500 c3         1 V9A      -0.080400
      5 C31        -27.8730    13.5810    29.9050 c3         1 V9A      -0.071400
      6 C20        -28.1090     7.3200    35.3510 c3         1 V9A      -0.050300
      7 C16        -26.0520    11.9920    32.9880 cc         1 V9A       0.115300
      8 C22        -27.9150     8.1840    37.8110 c3         1 V9A      -0.204400
      9 C21        -28.8380     7.6600    36.6800 c3         1 V9A      -0.055400
     10 C13        -25.8070    10.1430    34.1740 cc         1 V9A       0.128500
     11 C8         -25.1490    13.0270    26.2840 cc         1 V9A      -0.286600
     12 C9         -25.2030    11.6580    26.3510 cd         1 V9A       0.105400
     13 C4         -24.1150    13.7400    25.5330 c          1 V9A       0.615600
     14 C14        -24.5780    10.7490    34.1180 cd         1 V9A      -0.170000
     15 C15        -24.7380    11.9280    33.3620 cd         1 V9A      -0.204000
     16 C2         -23.3510    11.5510    25.0410 cc         1 V9A       0.716800
     17 C23        -28.7240     8.3780    39.1080 c          1 V9A       0.713000
     18 C6         -27.0440    12.7680    27.6380 cd         1 V9A      -0.213300
     19 C7         -26.1960    13.6520    27.0140 cc         1 V9A      -0.070000
     20 N1         -24.2570    10.8620    25.6950 nd         1 V9A      -0.667100
     21 N19        -27.4670     8.5100    34.7420 ns         1 V9A      -0.410900
     22 N3         -23.2520    12.8890    24.9420 ns         1 V9A      -0.450400
     23 O12        -26.7310    10.9000    33.4800 os         1 V9A      -0.223000
     24 O18        -25.3240     8.1810    35.4830 o          1 V9A      -0.634100
     25 O24        -28.8300     7.4290    39.8700 o          1 V9A      -0.760000
     26 O28        -29.9080     7.3620    33.7650 o          1 V9A      -0.739000
     27 S5         -26.5690    11.0770    27.3300 ss         1 V9A       0.286000
     28 H2         -28.8410    13.8750    27.9940 hc         1 V9A       0.051200
     29 H3         -28.9030    12.2200    28.5690 hc         1 V9A       0.051200
     30 H4         -27.7210    11.6120    30.8090 hc         1 V9A       0.058200
     31 H5         -26.1800    12.2610    30.2490 hc         1 V9A       0.058200
     32 H6         -27.2600    14.4870    29.8230 hc         1 V9A       0.037700
     33 H7         -28.7930    13.8680    30.4290 hc         1 V9A       0.037700
     34 H10        -27.3290     6.5790    35.5690 h1         1 V9A       0.055700
     35 H11        -27.1460     7.4140    37.9510 hc         1 V9A       0.011200
     36 H12        -27.5190     9.1460    37.4630 hc         1 V9A       0.011200
     37 H13        -29.6240     8.4000    36.4820 hc         1 V9A       0.050700
     38 H14        -29.3460     6.7550    37.0340 hc         1 V9A       0.050700
     39 H15        -23.6620    10.3830    34.5730 ha         1 V9A       0.144000
     40 H16        -23.9670    12.6530    33.1180 ha         1 V9A       0.116000
     41 H17        -26.3040    14.7330    27.0680 ha         1 V9A       0.139000
     42 H20        -28.0480     9.1310    34.1890 hn         1 V9A       0.309500
     43 H21        -22.5200    13.2950    24.3850 hn         1 V9A       0.312500
     44 C17        -26.1360     8.8650    34.8670 c          1 V9A       0.517600
     45 N11        -22.4230    10.8560    24.4060 nv         1 V9A      -1.059200
     46 O27        -28.9230     5.4720    34.0650 o          1 V9A      -0.739000
     47 C33        -26.7970    13.0160    32.1780 c3         1 V9A      -0.094700
     48 O10        -24.0170    14.9530    25.4320 o          1 V9A      -0.559000
     49 H8         -26.2030    13.9360    32.1200 hc         1 V9A       0.046700
     50 H18        -22.4200     9.8750    24.6590 hn         1 V9A       0.499500
     51 H19        -21.5070    11.2800    24.3250 hn         1 V9A       0.499500
     52 H9         -27.7300    13.2770    32.6920 hc         1 V9A       0.046700
@<TRIPOS>BOND
     1     1    17 1   
     2     2     6 1   
     3     2    26 1   
     4     2    46 1   
     5     3     5 1   
     6     3    18 1   
     7     3    28 1   
     8     3    29 1   
     9     4     5 1   
    10     4    30 1   
    11     4    31 1   
    12     4    47 1   
    13     5    32 1   
    14     5    33 1   
    15     6     9 1   
    16     6    21 1   
    17     6    34 1   
    18     7    15 2   
    19     7    23 1   
    20     7    47 1   
    21     8     9 1   
    22     8    17 1   
    23     8    35 1   
    24     8    36 1   
    25     9    37 1   
    26     9    38 1   
    27    10    14 2   
    28    10    23 1   
    29    10    44 1   
    30    11    12 2   
    31    11    13 1   
    32    11    19 1   
    33    12    20 1   
    34    12    27 1   
    35    13    22 1   
    36    13    48 2   
    37    14    15 1   
    38    14    39 1   
    39    15    40 1   
    40    16    20 2   
    41    16    22 1   
    42    16    45 1   
    43    17    25 1   
    44    18    19 2   
    45    18    27 1   
    46    19    41 1   
    47    21    42 1   
    48    21    44 1   
    49    22    43 1   
    50    24    44 2   
    51    45    50 1   
    52    45    51 1   
    53    47    49 1   
    54    47    52 1   
@<TRIPOS>SUBSTRUCTURE
     1 V9A         1 TEMP              0 ****  ****    0 ROOT
