@<TRIPOS>MOLECULE
V9B
   25    25     1     0     0
SMALL
No Charge or Current Charge


@<TRIPOS>ATOM
      1 C10         43.1070    18.2170     8.5780 cc         1 V9B      -0.264600
      2 C15         42.3920    16.4250     7.3890 cd         1 V9B      -0.264600
      3 C22         39.5030    15.3780     5.1480 c3         1 V9B       0.096300
      4 C01         44.3340    21.3740    10.6530 c3         1 V9B      -0.078100
      5 C05         44.3340    19.9460    10.0610 c3         1 V9B      -0.173400
      6 C08         43.1350    19.5850     9.1620 c          1 V9B       0.610700
      7 O09         42.2420    20.3940     8.9370 o          1 V9B      -0.534100
      8 C11         44.0490    17.2350     8.7610 cd         1 V9B      -0.128000
      9 N13         43.6080    16.1260     8.0260 na         1 V9B      -0.058000
     10 C16         42.0910    17.7190     7.7360 cc         1 V9B      -0.077000
     11 C18         41.6010    15.5190     6.5190 c          1 V9B       0.638700
     12 O19         41.9440    14.3740     6.2600 o          1 V9B      -0.627100
     13 N20         40.4450    16.0740     6.0260 ns         1 V9B      -0.493900
     14 H1          38.6680    16.0460     4.9020 h1         1 V9B       0.042367
     15 H2          40.0120    15.0790     4.2220 h1         1 V9B       0.042367
     16 H3          39.1150    14.4860     5.6560 h1         1 V9B       0.042367
     17 H4          45.2240    21.5300    11.2740 hc         1 V9B       0.040367
     18 H5          44.3390    22.1260     9.8540 hc         1 V9B       0.040367
     19 H6          43.4480    21.5360    11.2780 hc         1 V9B       0.040367
     20 H7          44.4040    19.1850    10.8460 hc         1 V9B       0.055700
     21 H8          45.2500    19.7450     9.4940 hc         1 V9B       0.055700
     22 H9          44.9710    17.2270     9.3340 h4         1 V9B       0.153000
     23 H10         44.0960    15.2360     7.9620 hn         1 V9B       0.372000
     24 H11         41.2200    18.2950     7.4300 ha         1 V9B       0.145000
     25 H12         40.2470    17.0280     6.2970 hn         1 V9B       0.324500
@<TRIPOS>BOND
     1     1     6 1   
     2     1     8 2   
     3     1    10 1   
     4     2     9 1   
     5     2    10 2   
     6     2    11 1   
     7     3    13 1   
     8     3    14 1   
     9     3    15 1   
    10     3    16 1   
    11     4     5 1   
    12     4    17 1   
    13     4    18 1   
    14     4    19 1   
    15     5     6 1   
    16     5    20 1   
    17     5    21 1   
    18     6     7 2   
    19     8     9 1   
    20     8    22 1   
    21     9    23 1   
    22    10    24 1   
    23    11    12 2   
    24    11    13 1   
    25    13    25 1   
@<TRIPOS>SUBSTRUCTURE
     1 V9B         1 TEMP              0 ****  ****    0 ROOT
