@<TRIPOS>MOLECULE
V9B
   25    25     1     0     0
SMALL
bcc


@<TRIPOS>ATOM
      1 C10         43.0330    18.3340     8.6150 cc         1 V9B      -0.264600
      2 C15         42.2430    16.6160     7.3990 cd         1 V9B      -0.213900
      3 C22         39.6290    15.1860     5.1160 c3         1 V9B       0.096300
      4 C01         44.4560    21.2990    10.6820 c3         1 V9B      -0.078100
      5 C05         44.3970    19.9160    10.0590 c3         1 V9B      -0.173400
      6 C08         43.1530    19.6490     9.2440 c          1 V9B       0.610700
      7 O09         42.2820    20.4870     9.1050 o          1 V9B      -0.534100
      8 C11         43.9160    17.2680     8.7120 cd         1 V9B      -0.095300
      9 N13         43.4280    16.2570     7.9840 na         1 V9B      -0.109100
     10 C16         41.9720    17.9080     7.7760 cc         1 V9B      -0.095000
     11 C18         41.5460    15.6360     6.5490 c          1 V9B       0.705700
     12 O19         42.0080    14.5100     6.3930 o          1 V9B      -0.627100
     13 N20         40.4090    16.0470     5.9720 ns         1 V9B      -0.560900
     14 H1          38.7650    15.7440     4.7670 h1         1 V9B       0.042367
     15 H2          40.1990    14.8580     4.2460 h1         1 V9B       0.042367
     16 H3          39.2750    14.3020     5.6460 h1         1 V9B       0.042367
     17 H4          45.3770    21.4090    11.2540 hc         1 V9B       0.040367
     18 H5          44.4400    22.0840     9.9270 hc         1 V9B       0.040367
     19 H6          43.6220    21.4720    11.3630 hc         1 V9B       0.040367
     20 H7          44.4690    19.1450    10.8330 hc         1 V9B       0.055700
     21 H8          45.2650    19.7510     9.4130 hc         1 V9B       0.055700
     22 H9          44.8450    17.1730     9.2510 h4         1 V9B       0.171000
     23 H10         43.8610    15.3520     7.8720 hn         1 V9B       0.321700
     24 H11         41.1160    18.5010     7.4940 ha         1 V9B       0.163000
     25 H12         40.0740    16.9820     6.1320 hn         1 V9B       0.324500
@<TRIPOS>BOND
     1     1     6 1   
     2     1     8 2   
     3     1    10 1   
     4     2     9 1   
     5     2    10 2   
     6     2    11 1   
     7     3    13 1   
     8     3    14 1   
     9     3    15 1   
    10     3    16 1   
    11     4     5 1   
    12     4    17 1   
    13     4    18 1   
    14     4    19 1   
    15     5     6 1   
    16     5    20 1   
    17     5    21 1   
    18     6     7 2   
    19     8     9 1   
    20     8    22 1   
    21     9    23 1   
    22    10    24 1   
    23    11    12 2   
    24    11    13 1   
    25    13    25 1   
@<TRIPOS>SUBSTRUCTURE
     1 V9B         1 TEMP              0 ****  ****    0 ROOT
