@<TRIPOS>MOLECULE
V9C
   22    22     1     0     0
SMALL
No Charge or Current Charge


@<TRIPOS>ATOM
      1 CG          -2.1800     1.2230    -0.2300 ca         1 V9C      -0.110000
      2 CD1         -1.5240     0.0060    -0.5010 ca         1 V9C      -0.049300
      3 CD2         -3.4790     1.2240     0.3090 ca         1 V9C      -0.116500
      4 CE1         -2.1810    -1.2100    -0.2240 ca         1 V9C      -0.110000
      5 CE2         -4.1290     0.0090     0.5800 ca         1 V9C      -0.132000
      6 CZ          -3.4790    -1.2080     0.3140 ca         1 V9C      -0.116500
      7 C10         -0.1160     0.0040    -1.0790 c3         1 V9C      -0.057100
      8 C11          0.9610     0.0060     0.0230 c3         1 V9C       0.114000
      9 N1           2.3140     0.0040    -0.5330 ns         1 V9C      -0.552900
     10 C2           3.4650     0.0070     0.2000 c          1 V9C       0.726000
     11 O3           3.3950     0.0100     1.4150 o          1 V9C      -0.745000
     12 O1           4.5060     0.0050    -0.4260 o          1 V9C      -0.745000
     13 H1          -1.6820     2.1680    -0.4360 ha         1 V9C       0.112500
     14 H2          -3.9800     2.1670     0.5150 ha         1 V9C       0.099000
     15 H3          -1.6830    -2.1560    -0.4250 ha         1 V9C       0.112500
     16 H4          -5.1330     0.0100     0.9970 ha         1 V9C       0.096000
     17 H5          -3.9810    -2.1500     0.5260 ha         1 V9C       0.099000
     18 H6           0.0270    -0.8750    -1.7190 hc         1 V9C       0.042200
     19 H7           0.0280     0.8810    -1.7230 hc         1 V9C       0.042200
     20 H8           0.8370     0.8980     0.6510 h1         1 V9C       0.024700
     21 H9           0.8370    -0.8840     0.6550 h1         1 V9C       0.024700
     22 H10          2.4250     0.0020    -1.5370 hn         1 V9C       0.243500
@<TRIPOS>BOND
     1     1     2 ar  
     2     1     3 ar  
     3     1    13 1   
     4     2     4 ar  
     5     2     7 1   
     6     3     5 ar  
     7     3    14 1   
     8     4     6 ar  
     9     4    15 1   
    10     5     6 ar  
    11     5    16 1   
    12     6    17 1   
    13     7     8 1   
    14     7    18 1   
    15     7    19 1   
    16     8     9 1   
    17     8    20 1   
    18     8    21 1   
    19     9    10 1   
    20     9    22 1   
    21    10    11 1   
    22    10    12 1   
@<TRIPOS>SUBSTRUCTURE
     1 V9C         1 TEMP              0 ****  ****    0 ROOT
