@<TRIPOS>MOLECULE
V9C
   22    22     1     0     0
SMALL
abcg2


@<TRIPOS>ATOM
      1 CG          -2.1920     1.1920    -0.3540 ca         1 V9C      -0.110000
      2 CD1         -1.5110    -0.0100    -0.5380 ca         1 V9C      -0.049300
      3 CD2         -3.4580     1.2160     0.2180 ca         1 V9C      -0.116500
      4 CE1         -2.1310    -1.1900    -0.1310 ca         1 V9C      -0.110000
      5 CE2         -4.0640     0.0330     0.6190 ca         1 V9C      -0.132000
      6 CZ          -3.3960    -1.1730     0.4410 ca         1 V9C      -0.116500
      7 C10         -0.1240    -0.0310    -1.1150 c3         1 V9C      -0.057100
      8 C11          0.9420     0.0190    -0.0210 c3         1 V9C       0.114000
      9 N1           2.2620     0.0290    -0.5960 ns         1 V9C      -0.552900
     10 C2           3.4080    -0.1630     0.1980 c          1 V9C       0.726000
     11 O3           3.2460    -0.7020     1.3130 o          1 V9C      -0.745000
     12 O1           4.4910     0.2020    -0.3110 o          1 V9C      -0.745000
     13 H1          -1.7280     2.1210    -0.6650 ha         1 V9C       0.112500
     14 H2          -3.9700     2.1600     0.3500 ha         1 V9C       0.099000
     15 H3          -1.6200    -2.1360    -0.2700 ha         1 V9C       0.112500
     16 H4          -5.0510     0.0490     1.0640 ha         1 V9C       0.096000
     17 H5          -3.8620    -2.1020     0.7440 ha         1 V9C       0.099000
     18 H6           0.0220    -0.9330    -1.7140 hc         1 V9C       0.042200
     19 H7           0.0060     0.8210    -1.7890 hc         1 V9C       0.042200
     20 H8           0.7490     0.8910     0.6220 h1         1 V9C       0.024700
     21 H9           0.8390    -0.8590     0.6180 h1         1 V9C       0.024700
     22 H10          2.3890     0.7070    -1.3330 hn         1 V9C       0.243500
@<TRIPOS>BOND
     1     1     2 ar  
     2     1     3 ar  
     3     1    13 1   
     4     2     4 ar  
     5     2     7 1   
     6     3     5 ar  
     7     3    14 1   
     8     4     6 ar  
     9     4    15 1   
    10     5     6 ar  
    11     5    16 1   
    12     6    17 1   
    13     7     8 1   
    14     7    18 1   
    15     7    19 1   
    16     8     9 1   
    17     8    20 1   
    18     8    21 1   
    19     9    10 1   
    20     9    22 1   
    21    10    11 1   
    22    10    12 1   
@<TRIPOS>SUBSTRUCTURE
     1 V9C         1 TEMP              0 ****  ****    0 ROOT
