@<TRIPOS>MOLECULE
V9D
   22    22     1     0     0
SMALL
No Charge or Current Charge


@<TRIPOS>ATOM
      1 C02        108.6130   104.5530   -37.4000 c          1 V9D       0.618700
      2 C05        107.6970   104.0370   -38.4960 ca         1 V9D      -0.161600
      3 C06        106.8090   102.9800   -38.2000 ca         1 V9D      -0.036500
      4 C07        105.9510   102.4710   -39.1850 ca         1 V9D      -0.124000
      5 C08        105.9600   103.0090   -40.4790 ca         1 V9D      -0.036500
      6 C09        106.8270   104.0740   -40.8090 ca         1 V9D      -0.161600
      7 C10        106.7990   104.6310   -42.2210 c          1 V9D       0.618700
      8 C14        107.6960   104.5800   -39.8070 ca         1 V9D      -0.065000
      9 N03        109.5450   105.5220   -37.7610 ns         1 V9D      -0.391900
     10 N11        107.5920   105.7460   -42.4750 ns         1 V9D      -0.391900
     11 O01        108.5300   104.1500   -36.2460 o          1 V9D      -0.566100
     12 O04        110.6160   105.9000   -36.8600 oh         1 V9D      -0.412600
     13 O12        107.4530   106.4960   -43.7090 oh         1 V9D      -0.412600
     14 O13        106.1230   104.1170   -43.1050 o          1 V9D      -0.566100
     15 H1         106.7830   102.5430   -37.2030 ha         1 V9D       0.139500
     16 H2         105.2750   101.6540   -38.9440 ha         1 V9D       0.128000
     17 H3         105.2830   102.5970   -41.2250 ha         1 V9D       0.139500
     18 H4         108.3700   105.3950   -40.0480 ha         1 V9D       0.114000
     19 H5         109.7060   105.7130   -38.7470 hn         1 V9D       0.343000
     20 H6         108.0060   106.2500   -41.6940 hn         1 V9D       0.343000
     21 H7         110.5770   106.8850   -36.8510 ho         1 V9D       0.442500
     22 H8         108.3800   106.5820   -44.0350 ho         1 V9D       0.442500
@<TRIPOS>BOND
     1     1     2 1   
     2     1     9 1   
     3     1    11 2   
     4     2     3 ar  
     5     2     8 ar  
     6     3     4 ar  
     7     3    15 1   
     8     4     5 ar  
     9     4    16 1   
    10     5     6 ar  
    11     5    17 1   
    12     6     7 1   
    13     6     8 ar  
    14     7    10 1   
    15     7    14 2   
    16     8    18 1   
    17     9    12 1   
    18     9    19 1   
    19    10    13 1   
    20    10    20 1   
    21    12    21 1   
    22    13    22 1   
@<TRIPOS>SUBSTRUCTURE
     1 V9D         1 TEMP              0 ****  ****    0 ROOT
