@<TRIPOS>MOLECULE
V9D
   22    22     1     0     0
SMALL
abcg2


@<TRIPOS>ATOM
      1 C02        108.8970   104.4460   -37.5770 c          1 V9D       0.618700
      2 C05        107.8790   104.0630   -38.6030 ca         1 V9D      -0.161600
      3 C06        107.0300   103.0000   -38.3130 ca         1 V9D      -0.036500
      4 C07        106.0730   102.6020   -39.2330 ca         1 V9D      -0.124000
      5 C08        105.9680   103.2490   -40.4530 ca         1 V9D      -0.036500
      6 C09        106.8370   104.2890   -40.7690 ca         1 V9D      -0.161600
      7 C10        106.6790   104.9610   -42.0940 c          1 V9D       0.618700
      8 C14        107.7860   104.6990   -39.8380 ca         1 V9D      -0.065000
      9 N03        109.1880   105.7570   -37.5430 ns         1 V9D      -0.391900
     10 N11        107.8330   105.3700   -42.6480 ns         1 V9D      -0.391900
     11 O01        109.3900   103.6260   -36.8220 o          1 V9D      -0.566100
     12 O04        110.2130   106.2070   -36.7730 oh         1 V9D      -0.412600
     13 O12        107.8220   106.1320   -43.7710 oh         1 V9D      -0.412600
     14 O13        105.5900   105.0950   -42.6250 o          1 V9D      -0.566100
     15 H1         107.1080   102.4910   -37.3610 ha         1 V9D       0.139500
     16 H2         105.4070   101.7830   -38.9980 ha         1 V9D       0.128000
     17 H3         105.2190   102.9350   -41.1680 ha         1 V9D       0.139500
     18 H4         108.4580   105.5140   -40.0770 ha         1 V9D       0.114000
     19 H5         108.7700   106.4450   -38.1510 hn         1 V9D       0.343000
     20 H6         108.7410   105.2180   -42.2340 hn         1 V9D       0.343000
     21 H7         109.8250   106.4800   -35.9310 ho         1 V9D       0.442500
     22 H8         107.8780   105.5220   -44.5190 ho         1 V9D       0.442500
@<TRIPOS>BOND
     1     1     2 1   
     2     1     9 1   
     3     1    11 2   
     4     2     3 ar  
     5     2     8 ar  
     6     3     4 ar  
     7     3    15 1   
     8     4     5 ar  
     9     4    16 1   
    10     5     6 ar  
    11     5    17 1   
    12     6     7 1   
    13     6     8 ar  
    14     7    10 1   
    15     7    14 2   
    16     8    18 1   
    17     9    12 1   
    18     9    19 1   
    19    10    13 1   
    20    10    20 1   
    21    12    21 1   
    22    13    22 1   
@<TRIPOS>SUBSTRUCTURE
     1 V9D         1 TEMP              0 ****  ****    0 ROOT
