@<TRIPOS>MOLECULE
V9E
   32    34     1     0     0
SMALL
No Charge or Current Charge


@<TRIPOS>ATOM
      1 C01        -15.4120   -25.3010     2.4220 cc         1 V9E      -0.138000
      2 C02        -14.3400   -24.9390     3.2730 cc         1 V9E      -0.125000
      3 C03        -13.2690   -24.3990     2.6110 cd         1 V9E      -0.238000
      4 C05        -15.1750   -25.0390     1.0960 cd         1 V9E      -0.165300
      5 C06        -18.4260   -24.3530     0.6950 cc         1 V9E       0.188000
      6 C07        -17.5460   -25.3980     0.2790 cc         1 V9E      -0.141300
      7 C08        -18.2850   -26.5440     0.2960 cd         1 V9E      -0.178000
      8 C12        -16.6680   -21.1210     0.6270 ca         1 V9E       0.388900
      9 C14        -18.1080   -22.9080     0.8440 ca         1 V9E       0.153000
     10 C15        -19.0780   -22.0000     1.3330 ca         1 V9E      -0.244000
     11 C16        -18.7310   -20.6460     1.4390 ca         1 V9E       0.252000
     12 C17        -16.0830   -25.2880    -0.0840 c3         1 V9E       0.086200
     13 N09        -19.5550   -26.1600     0.7120 na         1 V9E       0.133800
     14 N10        -19.6440   -24.8050     0.9600 nd         1 V9E      -0.506800
     15 N11        -17.5160   -20.1940     1.0850 nb         1 V9E      -0.239000
     16 N13        -16.8910   -22.4370     0.4850 nb         1 V9E      -0.245000
     17 N19        -15.4400   -20.6780     0.2590 nv         1 V9E      -1.057900
     18 S04        -13.5670   -24.3260     0.8640 ss         1 V9E       0.144000
     19 Cl20       -19.8840   -19.4660     2.0430 cl         1 V9E      -0.176000
     20 H011       -16.3290   -25.7410     2.8030 ha         1 V9E       0.136000
     21 H021       -14.3800   -25.0830     4.3500 ha         1 V9E       0.132000
     22 H031       -12.3320   -24.0440     3.0230 h4         1 V9E       0.148000
     23 H081       -18.0200   -27.5690     0.0610 h4         1 V9E       0.156000
     24 H151       -20.0700   -22.3300     1.6260 ha         1 V9E       0.161000
     25 H172       -15.7710   -26.2200    -0.5710 hc         1 V9E       0.061700
     26 H171       -15.9440   -24.5140    -0.8470 hc         1 V9E       0.061700
     27 H181       -21.0330   -27.0150     1.9450 h1         1 V9E       0.060033
     28 H182       -21.5420   -26.6920     0.2600 h1         1 V9E       0.060033
     29 H183       -20.4550   -28.0660     0.6180 h1         1 V9E       0.060033
     30 H191       -14.7020   -21.3620     0.1220 hn         1 V9E       0.498000
     31 H192       -15.1520   -19.7450     0.5450 hn         1 V9E       0.498000
     32 C18        -20.7190   -27.0380     0.8950 c3         1 V9E       0.075900
@<TRIPOS>BOND
     1     1     2 1   
     2     1     4 2   
     3     1    20 1   
     4     2     3 2   
     5     2    21 1   
     6     3    18 1   
     7     3    22 1   
     8     4    12 1   
     9     4    18 1   
    10     5     6 1   
    11     5     9 1   
    12     5    14 2   
    13     6     7 2   
    14     6    12 1   
    15     7    13 1   
    16     7    23 1   
    17     8    15 ar  
    18     8    16 ar  
    19     8    17 1   
    20     9    10 ar  
    21     9    16 ar  
    22    10    11 ar  
    23    10    24 1   
    24    11    15 ar  
    25    11    19 1   
    26    12    25 1   
    27    12    26 1   
    28    13    14 1   
    29    13    32 1   
    30    17    30 1   
    31    17    31 1   
    32    27    32 1   
    33    28    32 1   
    34    29    32 1   
@<TRIPOS>SUBSTRUCTURE
     1 V9E         1 TEMP              0 ****  ****    0 ROOT
