@<TRIPOS>MOLECULE
V9E
   32    34     1     0     0
SMALL
abcg2


@<TRIPOS>ATOM
      1 C01        -15.4410   -25.2170     2.4420 cc         1 V9E      -0.138000
      2 C02        -14.3630   -24.8180     3.2860 cc         1 V9E      -0.125000
      3 C03        -13.2960   -24.3340     2.5880 cd         1 V9E      -0.238000
      4 C05        -15.1860   -25.0320     1.1130 cd         1 V9E      -0.165300
      5 C06        -18.3940   -24.3470     0.6610 cc         1 V9E       0.188000
      6 C07        -17.5150   -25.3920     0.2650 cc         1 V9E      -0.141300
      7 C08        -18.3080   -26.5210     0.2910 cd         1 V9E      -0.178000
      8 C12        -16.6570   -21.1760     0.6250 ca         1 V9E       0.388900
      9 C14        -18.1180   -22.9230     0.8350 ca         1 V9E       0.153000
     10 C15        -19.0710   -22.0660     1.4020 ca         1 V9E      -0.244000
     11 C16        -18.6770   -20.7490     1.5250 ca         1 V9E       0.252000
     12 C17        -16.0580   -25.3460    -0.0730 c3         1 V9E       0.086200
     13 N09        -19.5510   -26.1380     0.6710 na         1 V9E       0.133800
     14 N10        -19.6250   -24.8270     0.9020 nd         1 V9E      -0.506800
     15 N11        -17.5040   -20.2740     1.1630 nb         1 V9E      -0.239000
     16 N13        -16.9230   -22.4750     0.4410 nb         1 V9E      -0.245000
     17 N19        -15.4490   -20.7230     0.2180 nv         1 V9E      -1.057900
     18 S04        -13.6070   -24.3560     0.8910 ss         1 V9E       0.144000
     19 CL20       -19.7980   -19.5900     2.2170 cl         1 V9E      -0.176000
     20 H011       -16.3770   -25.6160     2.8080 ha         1 V9E       0.136000
     21 H021       -14.3830   -24.8900     4.3650 ha         1 V9E       0.132000
     22 H031       -12.3560   -23.9650     2.9650 h4         1 V9E       0.148000
     23 H081       -18.0770   -27.5500     0.0730 h4         1 V9E       0.156000
     24 H151       -20.0370   -22.4150     1.7240 ha         1 V9E       0.161000
     25 H172       -15.7670   -26.3150    -0.4900 hc         1 V9E       0.061700
     26 H171       -15.8800   -24.6030    -0.8510 hc         1 V9E       0.061700
     27 H181       -21.0450   -26.9630     1.8800 h1         1 V9E       0.060033
     28 H182       -21.5290   -26.6170     0.2030 h1         1 V9E       0.060033
     29 H183       -20.4600   -27.9940     0.5540 h1         1 V9E       0.060033
     30 H191       -14.7340   -21.4040     0.0210 hn         1 V9E       0.498000
     31 H192       -15.1570   -19.8060     0.5130 hn         1 V9E       0.498000
     32 C18        -20.7230   -26.9790     0.8390 c3         1 V9E       0.075900
@<TRIPOS>BOND
     1     1     2 1   
     2     1     4 2   
     3     1    20 1   
     4     2     3 2   
     5     2    21 1   
     6     3    18 1   
     7     3    22 1   
     8     4    12 1   
     9     4    18 1   
    10     5     6 1   
    11     5     9 1   
    12     5    14 2   
    13     6     7 2   
    14     6    12 1   
    15     7    13 1   
    16     7    23 1   
    17     8    15 ar  
    18     8    16 ar  
    19     8    17 1   
    20     9    10 ar  
    21     9    16 ar  
    22    10    11 ar  
    23    10    24 1   
    24    11    15 ar  
    25    11    19 1   
    26    12    25 1   
    27    12    26 1   
    28    13    14 1   
    29    13    32 1   
    30    17    30 1   
    31    17    31 1   
    32    27    32 1   
    33    28    32 1   
    34    29    32 1   
@<TRIPOS>SUBSTRUCTURE
     1 V9E         1 TEMP              0 ****  ****    0 ROOT
