@<TRIPOS>MOLECULE
V9H
   53    55     1     0     0
SMALL
No Charge or Current Charge


@<TRIPOS>ATOM
      1 N1          44.8160    17.1270     9.9930 ns         1 V9H      -0.487900
      2 N3          40.5770    17.2320     8.0020 nc         1 V9H      -0.511800
      3 C4          42.5930    17.4360     9.1410 cc         1 V9H      -0.230600
      4 C5          43.6740    17.8920    10.0490 c          1 V9H       0.643700
      5 C6          46.0240    17.3380    10.7980 c6         1 V9H       0.109700
      6 C7          45.8520    16.7150    12.2100 c6         1 V9H      -0.089900
      7 C8          47.1350    16.8830    13.0640 c6         1 V9H      -0.091400
      8 C10         48.5390    16.8730    10.9390 c6         1 V9H      -0.091400
      9 C13         39.6290    19.8550     8.8130 c3         1 V9H      -0.088100
     10 C15         40.5120    19.4480    12.1690 ca         1 V9H      -0.089000
     11 C17         39.1020    18.0350    13.5620 ca         1 V9H      -0.102000
     12 O1          43.5840    18.8600    10.7880 o          1 V9H      -0.598100
     13 C11         47.2500    16.7030    10.0940 c6         1 V9H      -0.089900
     14 C9          48.3670    16.2680    12.3540 c6         1 V9H       0.169300
     15 O2          49.5460    16.5030    13.1280 oh         1 V9H      -0.657000
     16 C3          42.6480    16.3680     8.2790 cd         1 V9H      -0.141000
     17 N2          41.3060    17.9430     8.9440 na         1 V9H       0.179800
     18 C2          41.4110    16.2770     7.6060 cd         1 V9H       0.182500
     19 C1          41.0630    15.2370     6.5730 c          1 V9H       0.532600
     20 O           41.8210    14.3490     6.1980 o          1 V9H      -0.602100
     21 N           39.7850    15.3670     6.0660 ns         1 V9H      -0.496900
     22 C           39.1950    14.4900     5.0540 c3         1 V9H       0.097300
     23 C12         40.6930    19.1020     9.6500 c3         1 V9H       0.145600
     24 C14         40.1310    18.7200    11.0230 ca         1 V9H      -0.118300
     25 C19         39.2240    17.6470    11.1620 ca         1 V9H      -0.089000
     26 C18         38.7140    17.3060    12.4260 ca         1 V9H      -0.114000
     27 C16         40.0010    19.1060    13.4330 ca         1 V9H      -0.114000
     28 H1          44.8010    16.3470     9.3520 hn         1 V9H       0.320500
     29 H2          46.1940    18.4210    10.9000 h1         1 V9H       0.081700
     30 H3          45.0040    17.1880    12.7250 hc         1 V9H       0.049450
     31 H4          45.6050    15.6480    12.1200 hc         1 V9H       0.049450
     32 H5          47.3090    17.9510    13.2580 hc         1 V9H       0.053700
     33 H6          46.9880    16.4070    14.0430 hc         1 V9H       0.053700
     34 H7          49.3820    16.3890    10.4270 hc         1 V9H       0.053700
     35 H8          48.7910    17.9400    11.0160 hc         1 V9H       0.053700
     36 H10         40.0460    20.1630     7.8470 hc         1 V9H       0.053367
     37 H11         38.7510    19.2240     8.6290 hc         1 V9H       0.053367
     38 H12         41.2100    20.2790    12.0830 ha         1 V9H       0.121000
     39 H13         38.7060    17.7700    14.5410 ha         1 V9H       0.114000
     40 H14         47.0690    15.6340     9.9130 hc         1 V9H       0.049450
     41 H15         47.3940    17.1670     9.1080 hc         1 V9H       0.049450
     42 H16         48.2030    15.1850    12.2500 h1         1 V9H       0.026700
     43 H17         49.4200    16.0330    13.9820 ho         1 V9H       0.442000
     44 H18         43.4830    15.6930     8.1190 ha         1 V9H       0.164000
     45 H19         39.2350    16.1340     6.4410 hn         1 V9H       0.332500
     46 H20         38.1710    14.8190     4.8350 h1         1 V9H       0.039700
     47 H21         39.7940    14.5330     4.1340 h1         1 V9H       0.039700
     48 H22         39.1720    13.4580     5.4270 h1         1 V9H       0.039700
     49 H23         41.5030    19.8230     9.8070 h1         1 V9H       0.093700
     50 H24         38.9120    17.0760    10.2900 ha         1 V9H       0.121000
     51 H25         38.0160    16.4770    12.5240 ha         1 V9H       0.116000
     52 H26         40.3020    19.6710    14.3120 ha         1 V9H       0.116000
     53 H9          39.2960    20.7540     9.3430 hc         1 V9H       0.053367
@<TRIPOS>BOND
     1     1     4 1   
     2     1     5 1   
     3     1    28 1   
     4     2    17 1   
     5     2    18 2   
     6     3     4 1   
     7     3    16 2   
     8     3    17 1   
     9     4    12 2   
    10     5     6 1   
    11     5    13 1   
    12     5    29 1   
    13     6     7 1   
    14     6    30 1   
    15     6    31 1   
    16     7    14 1   
    17     7    32 1   
    18     7    33 1   
    19     8    13 1   
    20     8    14 1   
    21     8    34 1   
    22     8    35 1   
    23     9    23 1   
    24     9    36 1   
    25     9    37 1   
    26     9    53 1   
    27    10    24 ar  
    28    10    27 ar  
    29    10    38 1   
    30    11    26 ar  
    31    11    27 ar  
    32    11    39 1   
    33    13    40 1   
    34    13    41 1   
    35    14    15 1   
    36    14    42 1   
    37    15    43 1   
    38    16    18 1   
    39    16    44 1   
    40    17    23 1   
    41    18    19 1   
    42    19    20 2   
    43    19    21 1   
    44    21    22 1   
    45    21    45 1   
    46    22    46 1   
    47    22    47 1   
    48    22    48 1   
    49    23    24 1   
    50    23    49 1   
    51    24    25 ar  
    52    25    26 ar  
    53    25    50 1   
    54    26    51 1   
    55    27    52 1   
@<TRIPOS>SUBSTRUCTURE
     1 V9H         1 TEMP              0 ****  ****    0 ROOT
