@<TRIPOS>MOLECULE
V9H
   53    55     1     0     0
SMALL
bcc


@<TRIPOS>ATOM
      1 N1          44.4670    17.0340     9.9400 ns         1 V9H      -0.554900
      2 N3          40.5470    17.3080     7.7060 nc         1 V9H      -0.511800
      3 C4          42.5810    17.4430     8.5650 cc         1 V9H      -0.179900
      4 C5          43.6640    17.9770     9.4320 c          1 V9H       0.710700
      5 C6          45.5800    17.3230    10.8240 c6         1 V9H       0.109700
      6 C7          45.1300    17.4240    12.2810 c6         1 V9H      -0.089900
      7 C8          46.3190    17.6960    13.1960 c6         1 V9H      -0.091400
      8 C10         47.8360    16.5230    11.5940 c6         1 V9H      -0.091400
      9 C13         39.2610    19.0800     9.3230 c3         1 V9H      -0.088100
     10 C15         41.3530    19.2370    11.9770 ca         1 V9H      -0.107000
     11 C17         41.3640    17.4670    13.6060 ca         1 V9H      -0.120000
     12 O1          43.7980    19.1780     9.6160 o          1 V9H      -0.598100
     13 C11         46.6560    16.2530    10.6680 c6         1 V9H      -0.089900
     14 C9          47.3880    16.6190    13.0440 c6         1 V9H       0.146100
     15 O2          48.5290    16.8770    13.8360 oh         1 V9H      -0.594800
     16 C3          42.6360    16.4990     7.5670 cd         1 V9H      -0.224300
     17 N2          41.3050    17.9020     8.6020 na         1 V9H       0.158400
     18 C2          41.3320    16.4650     7.0550 cd         1 V9H       0.247800
     19 C1          40.8380    15.6270     5.9380 c          1 V9H       0.599600
     20 O           41.5700    14.8060     5.4020 o          1 V9H      -0.602100
     21 N           39.5680    15.8420     5.5760 ns         1 V9H      -0.563900
     22 C           38.9350    15.1210     4.4980 c3         1 V9H       0.097300
     23 C12         40.7410    18.8400     9.5770 c3         1 V9H       0.116300
     24 C14         40.9830    18.3390    10.9830 ca         1 V9H      -0.118300
     25 C19         40.8030    16.9980    11.3130 ca         1 V9H      -0.107000
     26 C18         40.9950    16.5650    12.6170 ca         1 V9H      -0.132000
     27 C16         41.5390    18.8060    13.2840 ca         1 V9H      -0.132000
     28 H1          44.1980    16.0680     9.8290 hn         1 V9H       0.320500
     29 H2          46.0010    18.2850    10.5210 h1         1 V9H       0.081700
     30 H3          44.3830    18.2120    12.3910 hc         1 V9H       0.049450
     31 H4          44.6450    16.4850    12.5700 hc         1 V9H       0.049450
     32 H5          46.7580    18.6700    12.9530 hc         1 V9H       0.053700
     33 H6          45.9810    17.7490    14.2360 hc         1 V9H       0.053700
     34 H7          48.5800    15.7320    11.4820 hc         1 V9H       0.053700
     35 H8          48.3190    17.4630    11.3060 hc         1 V9H       0.053700
     36 H10         39.0840    19.4850     8.3280 hc         1 V9H       0.053367
     37 H11         38.6730    18.1720     9.4410 hc         1 V9H       0.053367
     38 H12         41.5040    20.2800    11.7280 ha         1 V9H       0.139000
     39 H13         41.5180    17.1280    14.6220 ha         1 V9H       0.132000
     40 H14         46.2250    15.2730    10.8990 hc         1 V9H       0.049450
     41 H15         46.9950    16.2150     9.6310 hc         1 V9H       0.049450
     42 H16         46.9360    15.6530    13.3240 h1         1 V9H       0.026700
     43 H17         48.2480    16.9420    14.7550 ho         1 V9H       0.403000
     44 H18         43.4970    15.9400     7.2400 ha         1 V9H       0.182000
     45 H19         39.0390    16.5440     6.0680 hn         1 V9H       0.332500
     46 H20         37.9150    15.4790     4.3980 h1         1 V9H       0.039700
     47 H21         39.4490    15.2810     3.5500 h1         1 V9H       0.039700
     48 H22         38.9040    14.0480     4.6930 h1         1 V9H       0.039700
     49 H23         41.2680    19.7860     9.4470 h1         1 V9H       0.093700
     50 H24         40.5130    16.2820    10.5520 ha         1 V9H       0.139000
     51 H25         40.8560    15.5200    12.8610 ha         1 V9H       0.134000
     52 H26         41.8320    19.5160    14.0470 ha         1 V9H       0.134000
     53 H9          38.9100    19.8110    10.0510 hc         1 V9H       0.053367
@<TRIPOS>BOND
     1     1     4 1   
     2     1     5 1   
     3     1    28 1   
     4     2    17 1   
     5     2    18 2   
     6     3     4 1   
     7     3    16 2   
     8     3    17 1   
     9     4    12 2   
    10     5     6 1   
    11     5    13 1   
    12     5    29 1   
    13     6     7 1   
    14     6    30 1   
    15     6    31 1   
    16     7    14 1   
    17     7    32 1   
    18     7    33 1   
    19     8    13 1   
    20     8    14 1   
    21     8    34 1   
    22     8    35 1   
    23     9    23 1   
    24     9    36 1   
    25     9    37 1   
    26     9    53 1   
    27    10    24 ar  
    28    10    27 ar  
    29    10    38 1   
    30    11    26 ar  
    31    11    27 ar  
    32    11    39 1   
    33    13    40 1   
    34    13    41 1   
    35    14    15 1   
    36    14    42 1   
    37    15    43 1   
    38    16    18 1   
    39    16    44 1   
    40    17    23 1   
    41    18    19 1   
    42    19    20 2   
    43    19    21 1   
    44    21    22 1   
    45    21    45 1   
    46    22    46 1   
    47    22    47 1   
    48    22    48 1   
    49    23    24 1   
    50    23    49 1   
    51    24    25 ar  
    52    25    26 ar  
    53    25    50 1   
    54    26    51 1   
    55    27    52 1   
@<TRIPOS>SUBSTRUCTURE
     1 V9H         1 TEMP              0 ****  ****    0 ROOT
