@<TRIPOS>MOLECULE
V9I
   34    34     1     0     0
SMALL
abcg2


@<TRIPOS>ATOM
      1 N1          16.1470    11.8050   -41.7650 ns         1 V9I      -0.396400
      2 C7          18.3610    12.0370   -39.1050 c6         1 V9I       0.118000
      3 C8          16.7060    12.6440   -40.8670 c          1 V9I       0.608100
      4 O1          21.5190    10.4170   -38.3880 o          1 V9I      -0.546000
      5 C1          19.8540     8.3340   -38.0220 c3         1 V9I       0.181600
      6 C5          19.0430    13.5610   -40.9980 c6         1 V9I      -0.066400
      7 C6          18.1720    12.3600   -40.5980 c6         1 V9I      -0.169700
      8 C4          20.5030    13.3260   -40.6120 c6         1 V9I      -0.101400
      9 C3          20.6310    12.9630   -39.1340 c6         1 V9I       0.102000
     10 O3          14.7970    11.8630   -42.0430 os         1 V9I      -0.221100
     11 O2          16.0920    13.5570   -40.3220 o          1 V9I      -0.576100
     12 N           19.7730    11.8250   -38.8150 n          1 V9I      -0.402800
     13 O           19.3870     9.6470   -38.4100 os         1 V9I      -0.468100
     14 C           19.9900     8.2160   -36.5180 c3         1 V9I      -0.122100
     15 H14         16.6290    11.0100   -42.1590 hn         1 V9I       0.338500
     16 H13         18.0100    12.8840   -38.5100 h1         1 V9I       0.075200
     17 H12         17.7920    11.1590   -38.8230 h1         1 V9I       0.075200
     18 H17         13.4720    12.6190   -43.3680 h1         1 V9I       0.046033
     19 H16         14.8960    13.6650   -43.0920 h1         1 V9I       0.046033
     20 H15         15.0490    12.1860   -44.0900 h1         1 V9I       0.046033
     21 H4          19.0900     7.6580   -38.4030 h1         1 V9I       0.060700
     22 H5          20.7960     8.1300   -38.5260 h1         1 V9I       0.060700
     23 H11         18.9550    13.7410   -42.0710 hc         1 V9I       0.055700
     24 H10         18.6650    14.4500   -40.4850 hc         1 V9I       0.055700
     25 H           18.4890    11.4860   -41.1730 hc         1 V9I       0.058700
     26 H9          20.9210    12.5140   -41.2140 hc         1 V9I       0.053200
     27 H8          21.0940    14.2220   -40.8160 hc         1 V9I       0.053200
     28 H6          21.6540    12.7080   -38.8730 h1         1 V9I       0.067700
     29 H7          20.3160    13.8080   -38.5130 h1         1 V9I       0.067700
     30 H2          20.2870     7.1970   -36.2590 hc         1 V9I       0.049700
     31 H3          20.7490     8.9010   -36.1390 hc         1 V9I       0.049700
     32 H1          19.0400     8.4320   -36.0250 hc         1 V9I       0.049700
     33 C2          20.3190    10.6190   -38.5310 c          1 V9I       0.639100
     34 C9          14.5520    12.6390   -43.2300 c3         1 V9I       0.114900
@<TRIPOS>BOND
     1     1     3 1   
     2     1    10 1   
     3     1    15 1   
     4     2     7 1   
     5     2    12 1   
     6     2    16 1   
     7     2    17 1   
     8     3     7 1   
     9     3    11 2   
    10     4    33 2   
    11     5    13 1   
    12     5    14 1   
    13     5    21 1   
    14     5    22 1   
    15     6     7 1   
    16     6     8 1   
    17     6    23 1   
    18     6    24 1   
    19     7    25 1   
    20     8     9 1   
    21     8    26 1   
    22     8    27 1   
    23     9    12 1   
    24     9    28 1   
    25     9    29 1   
    26    10    34 1   
    27    12    33 1   
    28    13    33 1   
    29    14    30 1   
    30    14    31 1   
    31    14    32 1   
    32    18    34 1   
    33    19    34 1   
    34    20    34 1   
@<TRIPOS>SUBSTRUCTURE
     1 V9I         1 TEMP              0 ****  ****    0 ROOT
