@<TRIPOS>MOLECULE
V9I
   34    34     1     0     0
SMALL
No Charge or Current Charge


@<TRIPOS>ATOM
      1 N1          16.1640    11.9330   -42.2290 ns         1 V9I      -0.396400
      2 C7          18.5690    11.3580   -39.6930 c6         1 V9I       0.118000
      3 C8          16.6490    12.4130   -41.0230 c          1 V9I       0.608100
      4 O1          21.7000    10.3180   -38.1080 o          1 V9I      -0.546000
      5 C1          20.0240     8.1950   -37.4730 c3         1 V9I       0.181600
      6 C5          18.8630    13.7060   -40.7580 c6         1 V9I      -0.066400
      7 C6          18.1730    12.3290   -40.8300 c6         1 V9I      -0.169700
      8 C4          20.3840    13.4930   -40.6980 c6         1 V9I      -0.101400
      9 C3          20.7870    12.6060   -39.4970 c6         1 V9I       0.102000
     10 O3          14.7420    11.9170   -42.4460 os         1 V9I      -0.221100
     11 O2          15.9180    12.8810   -40.1590 o          1 V9I      -0.576100
     12 N           20.0320    11.3220   -39.3670 n          1 V9I      -0.402800
     13 O           19.6660     9.2820   -38.3500 os         1 V9I      -0.468100
     14 C           19.8960     8.6720   -36.0120 c3         1 V9I      -0.122100
     15 H14         16.7510    11.5060   -42.9410 hn         1 V9I       0.338500
     16 H13         18.0270    11.6390   -38.7790 h1         1 V9I       0.075200
     17 H12         18.2240    10.3510   -39.9720 h1         1 V9I       0.075200
     18 H17         13.2180    13.0630   -43.2980 h1         1 V9I       0.046033
     19 H16         14.5360    13.9990   -42.5610 h1         1 V9I       0.046033
     20 H15         14.7890    13.1750   -44.1210 h1         1 V9I       0.046033
     21 H4          19.3360     7.3530   -37.6250 h1         1 V9I       0.060700
     22 H5          21.0410     7.8330   -37.6730 h1         1 V9I       0.060700
     23 H11         18.6000    14.3130   -41.6350 hc         1 V9I       0.055700
     24 H10         18.5210    14.2580   -39.8710 hc         1 V9I       0.055700
     25 H           18.5540    11.8620   -41.7490 hc         1 V9I       0.058700
     26 H9          20.7300    13.0240   -41.6290 hc         1 V9I       0.053200
     27 H8          20.8970    14.4630   -40.6310 hc         1 V9I       0.053200
     28 H6          21.8630    12.3930   -39.5740 h1         1 V9I       0.067700
     29 H7          20.6440    13.1810   -38.5710 h1         1 V9I       0.067700
     30 H2          20.0830     7.8360   -35.3270 hc         1 V9I       0.049700
     31 H3          20.6190     9.4630   -35.7840 hc         1 V9I       0.049700
     32 H1          18.8860     9.0530   -35.8180 hc         1 V9I       0.049700
     33 C2          20.5630    10.2970   -38.5580 c          1 V9I       0.639100
     34 C9          14.3030    13.0960   -43.1400 c3         1 V9I       0.114900
@<TRIPOS>BOND
     1     1     3 1   
     2     1    10 1   
     3     1    15 1   
     4     2     7 1   
     5     2    12 1   
     6     2    16 1   
     7     2    17 1   
     8     3     7 1   
     9     3    11 2   
    10     4    33 2   
    11     5    13 1   
    12     5    14 1   
    13     5    21 1   
    14     5    22 1   
    15     6     7 1   
    16     6     8 1   
    17     6    23 1   
    18     6    24 1   
    19     7    25 1   
    20     8     9 1   
    21     8    26 1   
    22     8    27 1   
    23     9    12 1   
    24     9    28 1   
    25     9    29 1   
    26    10    34 1   
    27    12    33 1   
    28    13    33 1   
    29    14    30 1   
    30    14    31 1   
    31    14    32 1   
    32    18    34 1   
    33    19    34 1   
    34    20    34 1   
@<TRIPOS>SUBSTRUCTURE
     1 V9I         1 TEMP              0 ****  ****    0 ROOT
