@<TRIPOS>MOLECULE
V9J
   38    41     1     0     0
SMALL
bcc


@<TRIPOS>ATOM
      1 CAM         17.7370   -11.4260     6.5200 ca         1 V9J      -0.099500
      2 CAN         18.5180   -12.4310     7.0640 ca         1 V9J      -0.179000
      3 CAO         19.4600   -12.1320     8.0460 ca         1 V9J       0.134100
      4 OAR         20.2020   -13.1460     8.5390 oh         1 V9J      -0.492100
      5 CAP         19.6010   -10.8180     8.4820 ca         1 V9J      -0.179000
      6 CAQ         18.8230    -9.8110     7.9320 ca         1 V9J      -0.099500
      7 CAL         17.8980   -10.1190     6.9520 ca         1 V9J       0.057100
      8 OAK         17.1300    -9.0950     6.4210 os         1 V9J      -0.215200
      9 CAH         17.1390    -8.9840     5.0790 cc         1 V9J       0.146700
     10 SAG         15.5910    -8.9060     4.2770 ss         1 V9J      -0.057500
     11 CAE         16.3800    -8.8120     2.7330 ca         1 V9J       0.001900
     12 CAD         15.7550    -8.6940     1.4960 ca         1 V9J      -0.202000
     13 CAC         16.5520    -8.6370     0.3630 ca         1 V9J       0.151100
     14 OAS         16.0390    -8.5330    -0.8800 oh         1 V9J      -0.492100
     15 CAB         17.9500    -8.6870     0.4750 ca         1 V9J      -0.159000
     16 CAA         18.5540    -8.7940     1.7100 ca         1 V9J      -0.056000
     17 CAF         17.7760    -8.8610     2.8680 ca         1 V9J      -0.084800
     18 CAI         18.2010    -8.9520     4.2410 cd         1 V9J      -0.062400
     19 CAJ         19.6020    -9.0010     4.6930 ca         1 V9J      -0.047800
     20 CAT         20.1560    -7.9230     5.3800 ca         1 V9J      -0.083000
     21 CAU         21.4580    -7.9730     5.8530 ca         1 V9J      -0.173500
     22 CAV         22.1950    -9.1190     5.6290 ca         1 V9J       0.136900
     23 FAY         23.4560    -9.1790     6.0900 f          1 V9J      -0.145900
     24 CAW         21.6830   -10.2040     4.9440 ca         1 V9J      -0.173500
     25 CAX         20.3810   -10.1350     4.4760 ca         1 V9J      -0.083000
     26 H1          17.0090   -11.6680     5.7550 ha         1 V9J       0.147500
     27 H2          18.3980   -13.4520     6.7260 ha         1 V9J       0.142500
     28 H3          20.8230   -12.8150     9.1960 ho         1 V9J       0.427000
     29 H4          20.3290   -10.5710     9.2470 ha         1 V9J       0.142500
     30 H5          18.9510    -8.7870     8.2580 ha         1 V9J       0.147500
     31 H6          14.6740    -8.6550     1.4210 ha         1 V9J       0.141000
     32 H7          15.0760    -8.5090    -0.8480 ho         1 V9J       0.427000
     33 H8          18.5550    -8.6370    -0.4220 ha         1 V9J       0.150000
     34 H9          19.6340    -8.8230     1.7800 ha         1 V9J       0.144000
     35 H10         19.5640    -7.0340     5.5510 ha         1 V9J       0.142500
     36 H11         21.8890    -7.1370     6.3880 ha         1 V9J       0.150500
     37 H12         22.2860   -11.0880     4.7860 ha         1 V9J       0.150500
     38 H13         19.9600   -10.9850     3.9540 ha         1 V9J       0.142500
@<TRIPOS>BOND
     1     1     2 ar  
     2     1     7 ar  
     3     1    26 1   
     4     2     3 ar  
     5     2    27 1   
     6     3     4 1   
     7     3     5 ar  
     8     4    28 1   
     9     5     6 ar  
    10     5    29 1   
    11     6     7 ar  
    12     6    30 1   
    13     7     8 1   
    14     8     9 1   
    15     9    10 1   
    16     9    18 2   
    17    10    11 1   
    18    11    12 ar  
    19    11    17 ar  
    20    12    13 ar  
    21    12    31 1   
    22    13    14 1   
    23    13    15 ar  
    24    14    32 1   
    25    15    16 ar  
    26    15    33 1   
    27    16    17 ar  
    28    16    34 1   
    29    17    18 1   
    30    18    19 1   
    31    19    20 ar  
    32    19    25 ar  
    33    20    21 ar  
    34    20    35 1   
    35    21    22 ar  
    36    21    36 1   
    37    22    23 1   
    38    22    24 ar  
    39    24    25 ar  
    40    24    37 1   
    41    25    38 1   
@<TRIPOS>SUBSTRUCTURE
     1 V9J         1 TEMP              0 ****  ****    0 ROOT
