@<TRIPOS>MOLECULE
V9J
   38    41     1     0     0
SMALL
No Charge or Current Charge


@<TRIPOS>ATOM
      1 CAM         17.7900   -11.1610     6.3740 ca         1 V9J      -0.081500
      2 CAN         18.2320   -12.3560     6.9710 ca         1 V9J      -0.161000
      3 CAO         18.8870   -12.3290     8.2100 ca         1 V9J       0.134100
      4 OAR         19.3090   -13.4950     8.7750 oh         1 V9J      -0.531100
      5 CAP         19.0990   -11.1060     8.8640 ca         1 V9J      -0.161000
      6 CAQ         18.6600    -9.9080     8.2730 ca         1 V9J      -0.081500
      7 CAL         18.0130    -9.9170     7.0230 ca         1 V9J       0.057100
      8 OAK         17.6130    -8.6850     6.5160 os         1 V9J      -0.215200
      9 CAH         17.3570    -8.7370     5.1670 cc         1 V9J       0.146700
     10 SAG         15.7240    -8.7950     4.4800 ss         1 V9J       0.069400
     11 CAE         16.4880    -8.9180     2.8690 ca         1 V9J      -0.125000
     12 CAD         15.7720    -8.9600     1.6620 ca         1 V9J      -0.184000
     13 CAC         16.4820    -9.0070     0.4500 ca         1 V9J       0.151100
     14 OAS         15.8110    -9.0450    -0.7360 oh         1 V9J      -0.531100
     15 CAB         17.8880    -8.9920     0.4540 ca         1 V9J      -0.141000
     16 CAA         18.5980    -8.9480     1.6710 ca         1 V9J      -0.038000
     17 CAF         17.8790    -8.9390     2.8840 ca         1 V9J      -0.084800
     18 CAI         18.3950    -8.8800     4.2540 cd         1 V9J      -0.062400
     19 CAJ         19.8430    -8.8160     4.5750 ca         1 V9J      -0.047800
     20 CAT         20.3270    -7.9660     5.5960 ca         1 V9J      -0.065000
     21 CAU         21.6970    -7.9290     5.9110 ca         1 V9J      -0.155500
     22 CAV         22.5970    -8.7480     5.2180 ca         1 V9J       0.172000
     23 FAY         23.9120    -8.7150     5.5230 f          1 V9J      -0.181000
     24 CAW         22.1340    -9.6080     4.2130 ca         1 V9J      -0.155500
     25 CAX         20.7650    -9.6440     3.8960 ca         1 V9J      -0.065000
     26 H1          17.2760   -11.2260     5.4190 ha         1 V9J       0.129500
     27 H2          18.0620   -13.3060     6.4700 ha         1 V9J       0.124500
     28 H3          19.7390   -13.2890     9.6330 ho         1 V9J       0.466000
     29 H4          19.6030   -11.0740     9.8280 ha         1 V9J       0.124500
     30 H5          18.8270    -8.9610     8.7820 ha         1 V9J       0.129500
     31 H6          14.6840    -8.9470     1.6730 ha         1 V9J       0.123000
     32 H7          14.8480    -9.0440    -0.5450 ho         1 V9J       0.466000
     33 H8          18.4310    -9.0050    -0.4870 ha         1 V9J       0.132000
     34 H9          19.6820    -8.8960     1.6470 ha         1 V9J       0.126000
     35 H10         19.6500    -7.3060     6.1310 ha         1 V9J       0.124500
     36 H11         22.0610    -7.2640     6.6910 ha         1 V9J       0.132500
     37 H12         22.8340   -10.2550     3.6900 ha         1 V9J       0.132500
     38 H13         20.4180   -10.3550     3.1500 ha         1 V9J       0.124500
@<TRIPOS>BOND
     1     1     2 ar  
     2     1     7 ar  
     3     1    26 1   
     4     2     3 ar  
     5     2    27 1   
     6     3     4 1   
     7     3     5 ar  
     8     4    28 1   
     9     5     6 ar  
    10     5    29 1   
    11     6     7 ar  
    12     6    30 1   
    13     7     8 1   
    14     8     9 1   
    15     9    10 1   
    16     9    18 2   
    17    10    11 1   
    18    11    12 ar  
    19    11    17 ar  
    20    12    13 ar  
    21    12    31 1   
    22    13    14 1   
    23    13    15 ar  
    24    14    32 1   
    25    15    16 ar  
    26    15    33 1   
    27    16    17 ar  
    28    16    34 1   
    29    17    18 1   
    30    18    19 1   
    31    19    20 ar  
    32    19    25 ar  
    33    20    21 ar  
    34    20    35 1   
    35    21    22 ar  
    36    21    36 1   
    37    22    23 1   
    38    22    24 ar  
    39    24    25 ar  
    40    24    37 1   
    41    25    38 1   
@<TRIPOS>SUBSTRUCTURE
     1 V9J         1 TEMP              0 ****  ****    0 ROOT
