@<TRIPOS>MOLECULE
V9K
   53    55     1     0     0
SMALL
No Charge or Current Charge


@<TRIPOS>ATOM
      1 N1          45.4650    16.3370    10.4180 ns         1 V9K      -0.495900
      2 C4          43.3480    16.9460     9.4930 cc         1 V9K      -0.253600
      3 C5          44.3850    17.1810    10.5230 c          1 V9K       0.648700
      4 C6          46.6480    16.3520    11.2850 c6         1 V9K       0.107700
      5 C7          47.3370    14.9620    11.2670 c6         1 V9K      -0.088900
      6 C8          48.6150    14.9520    12.1440 c6         1 V9K      -0.090900
      7 C10         48.9330    17.4390    11.6920 c6         1 V9K      -0.090900
      8 C13         41.5490    18.7550    10.1570 c3         1 V9K      -0.056700
      9 C15         40.7450    18.2400    11.3520 ca         1 V9K      -0.087300
     10 C17         40.4120    18.0740    13.7670 ca         1 V9K      -0.113500
     11 C20         39.6010    17.4390    11.1550 ca         1 V9K      -0.094500
     12 O1          44.3180    18.0330    11.3950 o          1 V9K      -0.618100
     13 C11         47.6520    17.4390    10.8190 c6         1 V9K      -0.088900
     14 C9          49.6140    16.0480    11.6930 c6         1 V9K       0.169300
     15 O2          50.7490    16.0640    12.5620 oh         1 V9K      -0.657000
     16 C3          43.3730    15.9750     8.4590 cc         1 V9K      -0.088000
     17 C12         42.1570    17.6220     9.3510 cd         1 V9K       0.246300
     18 O3          41.4250    17.1290     8.2900 os         1 V9K      -0.237000
     19 C2          42.2050    16.1210     7.7660 cd         1 V9K       0.053500
     20 C1          41.7780    15.3130     6.5860 c          1 V9K       0.536600
     21 O           42.4390    14.4090     6.0910 o          1 V9K      -0.594100
     22 N           40.5470    15.6820     6.0900 ns         1 V9K      -0.496900
     23 C           39.8940    15.0530     4.9400 c3         1 V9K       0.095300
     24 C14         40.7040    19.7180     9.2870 c3         1 V9K      -0.083100
     25 C19         38.8670    16.9620    12.2550 ca         1 V9K      -0.113500
     26 C18         39.2720    17.2800    13.5620 ca         1 V9K      -0.104000
     27 C16         41.1460    18.5510    12.6680 ca         1 V9K      -0.094500
     28 H1          45.4330    15.6620     9.6670 hn         1 V9K       0.313500
     29 H2          46.3270    16.5750    12.3140 h1         1 V9K       0.081700
     30 H3          46.6370    14.1970    11.6290 hc         1 V9K       0.047700
     31 H4          47.5970    14.6850    10.2350 hc         1 V9K       0.047700
     32 H5          48.3400    15.1070    13.1960 hc         1 V9K       0.053700
     33 H6          49.0910    13.9630    12.0870 hc         1 V9K       0.053700
     34 H7          49.6350    18.1970    11.3180 hc         1 V9K       0.053700
     35 H8          48.6770    17.7300    12.7200 hc         1 V9K       0.053700
     36 H9          42.3740    19.3710    10.5300 hc         1 V9K       0.100700
     37 H10         40.7280    18.3190    14.7790 ha         1 V9K       0.112500
     38 H11         39.2780    17.1820    10.1480 ha         1 V9K       0.120000
     39 H12         47.9230    17.2720     9.7670 hc         1 V9K       0.047700
     40 H13         47.1780    18.4290    10.8640 hc         1 V9K       0.047700
     41 H14         49.9380    15.8220    10.6660 h1         1 V9K       0.026700
     42 H15         51.1900    15.1920    12.4640 ho         1 V9K       0.442000
     43 H16         44.1570    15.2520     8.2530 ha         1 V9K       0.157000
     44 H17         40.0750    16.4430     6.5670 hn         1 V9K       0.329500
     45 H18         38.9260    15.5370     4.7580 h1         1 V9K       0.042700
     46 H19         40.5270    15.1640     4.0500 h1         1 V9K       0.042700
     47 H20         39.7330    13.9870     5.1430 h1         1 V9K       0.042700
     48 H21         40.3470    20.5630     9.8890 hc         1 V9K       0.043367
     49 H22         41.3060    20.1190     8.4620 hc         1 V9K       0.043367
     50 H23         39.8300    19.2130     8.8590 hc         1 V9K       0.043367
     51 H24         37.9860    16.3460    12.0940 ha         1 V9K       0.112500
     52 H25         38.7040    16.9100    14.4130 ha         1 V9K       0.112000
     53 H26         42.0290    19.1620    12.8420 ha         1 V9K       0.120000
@<TRIPOS>BOND
     1     1     3 1   
     2     1     4 1   
     3     1    28 1   
     4     2     3 1   
     5     2    16 1   
     6     2    17 2   
     7     3    12 2   
     8     4     5 1   
     9     4    13 1   
    10     4    29 1   
    11     5     6 1   
    12     5    30 1   
    13     5    31 1   
    14     6    14 1   
    15     6    32 1   
    16     6    33 1   
    17     7    13 1   
    18     7    14 1   
    19     7    34 1   
    20     7    35 1   
    21     8     9 1   
    22     8    17 1   
    23     8    24 1   
    24     8    36 1   
    25     9    11 ar  
    26     9    27 ar  
    27    10    26 ar  
    28    10    27 ar  
    29    10    37 1   
    30    11    25 ar  
    31    11    38 1   
    32    13    39 1   
    33    13    40 1   
    34    14    15 1   
    35    14    41 1   
    36    15    42 1   
    37    16    19 2   
    38    16    43 1   
    39    17    18 1   
    40    18    19 1   
    41    19    20 1   
    42    20    21 2   
    43    20    22 1   
    44    22    23 1   
    45    22    44 1   
    46    23    45 1   
    47    23    46 1   
    48    23    47 1   
    49    24    48 1   
    50    24    49 1   
    51    24    50 1   
    52    25    26 ar  
    53    25    51 1   
    54    26    52 1   
    55    27    53 1   
@<TRIPOS>SUBSTRUCTURE
     1 V9K         1 TEMP              0 ****  ****    0 ROOT
