@<TRIPOS>MOLECULE
V9K
   53    55     1     0     0
SMALL
bcc


@<TRIPOS>ATOM
      1 N1          45.6610    16.2180    10.3920 ns         1 V9K      -0.562900
      2 C4          43.4130    16.6420     9.7130 cc         1 V9K      -0.318900
      3 C5          44.5010    16.8200    10.7010 c          1 V9K       0.715700
      4 C6          46.8530    16.3070    11.2150 c6         1 V9K       0.107700
      5 C7          47.6840    15.0370    11.0630 c6         1 V9K      -0.088900
      6 C8          48.9580    15.1160    11.8980 c6         1 V9K      -0.090900
      7 C10         48.9590    17.6070    11.7070 c6         1 V9K      -0.090900
      8 C13         41.7810    18.6080    10.3510 c3         1 V9K      -0.056700
      9 C15         40.6190    18.1990    11.2390 ca         1 V9K      -0.087300
     10 C17         39.8110    17.5380    13.4210 ca         1 V9K      -0.131500
     11 C20         39.3260    18.0570    10.7400 ca         1 V9K      -0.112500
     12 O1          44.3370    17.4620    11.7330 o          1 V9K      -0.618100
     13 C11         47.6850    17.5430    10.8710 c6         1 V9K      -0.088900
     14 C9          49.7860    16.3430    11.5340 c6         1 V9K       0.146100
     15 O2          50.9440    16.4650    12.3340 oh         1 V9K      -0.594800
     16 C3          43.2980    15.6400     8.7020 cc         1 V9K      -0.171300
     17 C12         42.2880    17.4160     9.6110 cd         1 V9K       0.356000
     18 O3          41.5190    16.9520     8.6180 os         1 V9K      -0.325800
     19 C2          42.1260    15.8730     8.0680 cd         1 V9K       0.163200
     20 C1          41.4870    15.1550     6.9540 c          1 V9K       0.603600
     21 O           42.0540    14.1960     6.4450 o          1 V9K      -0.594100
     22 N           40.2920    15.6080     6.5530 ns         1 V9K      -0.563900
     23 C           39.5740    14.9910     5.4640 c3         1 V9K       0.095300
     24 C14         41.4520    19.7710     9.4120 c3         1 V9K      -0.083100
     25 C19         38.2870    17.6630    11.5720 ca         1 V9K      -0.131500
     26 C18         38.5250    17.4030    12.9160 ca         1 V9K      -0.122000
     27 C16         40.8490    17.9290    12.5860 ca         1 V9K      -0.112500
     28 H1          45.7750    15.8220     9.4720 hn         1 V9K       0.313500
     29 H2          46.5280    16.3840    12.2550 h1         1 V9K       0.081700
     30 H3          47.0930    14.1680    11.3600 hc         1 V9K       0.047700
     31 H4          47.9440    14.8980    10.0070 hc         1 V9K       0.047700
     32 H5          48.7000    15.1640    12.9610 hc         1 V9K       0.053700
     33 H6          49.5490    14.2070    11.7540 hc         1 V9K       0.053700
     34 H7          49.5460    18.4830    11.4220 hc         1 V9K       0.053700
     35 H8          48.7010    17.7250    12.7660 hc         1 V9K       0.053700
     36 H9          42.5930    18.9250    11.0010 hc         1 V9K       0.100700
     37 H10         40.0080    17.3390    14.4670 ha         1 V9K       0.130500
     38 H11         39.1170    18.2590     9.6970 ha         1 V9K       0.138000
     39 H12         47.9430    17.5090     9.8070 hc         1 V9K       0.047700
     40 H13         47.0890    18.4450    11.0240 hc         1 V9K       0.047700
     41 H14         50.0620    16.2620    10.4700 h1         1 V9K       0.026700
     42 H15         51.4770    15.6720    12.2180 ho         1 V9K       0.403000
     43 H16         43.9820    14.8350     8.4840 ha         1 V9K       0.175000
     44 H17         39.8690    16.3950     7.0170 hn         1 V9K       0.329500
     45 H18         38.6540    15.5460     5.3030 h1         1 V9K       0.042700
     46 H19         40.1520    15.0090     4.5400 h1         1 V9K       0.042700
     47 H20         39.3160    13.9540     5.6860 h1         1 V9K       0.042700
     48 H21         41.1280    20.6310     9.9970 hc         1 V9K       0.043367
     49 H22         42.3360    20.0650     8.8460 hc         1 V9K       0.043367
     50 H23         40.6620    19.5360     8.7000 hc         1 V9K       0.043367
     51 H24         37.2880    17.5600    11.1690 ha         1 V9K       0.130500
     52 H25         37.7130    17.0990    13.5640 ha         1 V9K       0.130000
     53 H26         41.8520    18.0250    12.9820 ha         1 V9K       0.138000
@<TRIPOS>BOND
     1     1     3 1   
     2     1     4 1   
     3     1    28 1   
     4     2     3 1   
     5     2    16 1   
     6     2    17 2   
     7     3    12 2   
     8     4     5 1   
     9     4    13 1   
    10     4    29 1   
    11     5     6 1   
    12     5    30 1   
    13     5    31 1   
    14     6    14 1   
    15     6    32 1   
    16     6    33 1   
    17     7    13 1   
    18     7    14 1   
    19     7    34 1   
    20     7    35 1   
    21     8     9 1   
    22     8    17 1   
    23     8    24 1   
    24     8    36 1   
    25     9    11 ar  
    26     9    27 ar  
    27    10    26 ar  
    28    10    27 ar  
    29    10    37 1   
    30    11    25 ar  
    31    11    38 1   
    32    13    39 1   
    33    13    40 1   
    34    14    15 1   
    35    14    41 1   
    36    15    42 1   
    37    16    19 2   
    38    16    43 1   
    39    17    18 1   
    40    18    19 1   
    41    19    20 1   
    42    20    21 2   
    43    20    22 1   
    44    22    23 1   
    45    22    44 1   
    46    23    45 1   
    47    23    46 1   
    48    23    47 1   
    49    24    48 1   
    50    24    49 1   
    51    24    50 1   
    52    25    26 ar  
    53    25    51 1   
    54    26    52 1   
    55    27    53 1   
@<TRIPOS>SUBSTRUCTURE
     1 V9K         1 TEMP              0 ****  ****    0 ROOT
