@<TRIPOS>MOLECULE
V9M
   49    48     1     0     0
SMALL
No Charge or Current Charge


@<TRIPOS>ATOM
      1 C            3.7660    41.6040    16.5590 c          1 V9M       0.715000
      2 CA           2.6690    40.5910    17.0280 c3         1 V9M      -0.049700
      3 CB           1.8140    41.1830    18.1950 c3         1 V9M      -0.050700
      4 CG1          2.5630    41.2200    19.5490 c3         1 V9M      -0.088600
      5 N            3.2120    39.1540    17.2960 nx         1 V9M      -0.654000
      6 C40          2.1690    38.1920    17.8710 c3         1 V9M       0.096600
      7 C42          2.7500    36.8540    18.3620 c3         1 V9M      -0.097400
      8 C43          1.7260    35.8530    18.9700 c3         1 V9M      -0.046700
      9 C44          1.2020    36.2830    20.4430 c3         1 V9M      -0.065400
     10 C45         -0.2040    36.9460    20.7010 c3         1 V9M      -0.041000
     11 C46         -1.3810    35.9850    20.3700 c3         1 V9M      -0.086433
     12 C47         -0.3970    38.2800    19.9390 c3         1 V9M      -0.086433
     13 C48         -0.2790    37.2610    22.2210 c3         1 V9M      -0.086433
     14 C49          0.6760    35.3980    17.9020 c3         1 V9M      -0.089100
     15 O            4.8410    41.5860    17.1420 o          1 V9M      -0.670000
     16 C54          3.8900    38.5850    16.0420 c3         1 V9M       0.087900
     17 CG2          1.2190    42.5670    17.8500 c3         1 V9M      -0.088600
     18 OXT          3.5680    42.2200    15.5220 o          1 V9M      -0.670000
     19 HA           1.9980    40.5020    16.1720 hx         1 V9M       0.074700
     20 HB           0.9470    40.5260    18.3260 hc         1 V9M       0.018700
     21 HG13         1.8970    41.5700    20.3470 hc         1 V9M       0.045367
     22 HG11         2.9240    40.2250    19.8320 hc         1 V9M       0.045367
     23 HG12         3.4230    41.8990    19.5060 hc         1 V9M       0.045367
     24 HN           3.9680    39.2640    18.0120 hn         1 V9M       0.525000
     25 H401         1.6990    38.6820    18.7210 hx         1 V9M       0.079700
     26 H402         1.4070    38.0080    17.1100 hx         1 V9M       0.079700
     27 H422         3.2470    36.3570    17.5210 hc         1 V9M       0.060700
     28 H421         3.5350    37.0590    19.1000 hc         1 V9M       0.060700
     29 H431         2.3500    34.9360    19.0780 hc         1 V9M       0.051700
     30 H442         1.2320    35.3680    21.0490 hc         1 V9M       0.040700
     31 H441         1.9700    36.9270    20.8880 hc         1 V9M       0.040700
     32 H463        -1.1960    34.9810    20.7710 hc         1 V9M       0.034256
     33 H462        -2.3170    36.3520    20.8090 hc         1 V9M       0.034256
     34 H461        -1.5560    35.9020    19.2940 hc         1 V9M       0.034256
     35 H472        -1.3610    38.7370    20.1970 hc         1 V9M       0.034256
     36 H473         0.3870    38.9970    20.2060 hc         1 V9M       0.034256
     37 H471        -0.3910    38.1310    18.8550 hc         1 V9M       0.034256
     38 H482        -0.1980    36.3450    22.8180 hc         1 V9M       0.034256
     39 H483         0.5350    37.9320    22.5210 hc         1 V9M       0.034256
     40 H481        -1.2270    37.7480    22.4820 hc         1 V9M       0.034256
     41 H493         0.0710    34.5680    18.2840 hc         1 V9M       0.037367
     42 H491         0.0110    36.2190    17.6120 hc         1 V9M       0.037367
     43 H492         1.1800    35.0450    16.9950 hc         1 V9M       0.037367
     44 H542         4.3650    37.6300    16.2750 hx         1 V9M       0.083367
     45 H543         3.1390    38.4380    15.2620 hx         1 V9M       0.083367
     46 H541         4.6490    39.2850    15.6840 hx         1 V9M       0.083367
     47 HG21         0.5030    42.8810    18.6190 hc         1 V9M       0.045367
     48 HG23         2.0000    43.3340    17.7840 hc         1 V9M       0.045367
     49 HG22         0.6870    42.5310    16.8910 hc         1 V9M       0.045367
@<TRIPOS>BOND
     1     1     2 1   
     2     1    15 1   
     3     1    18 1   
     4     2     3 1   
     5     2     5 1   
     6     2    19 1   
     7     3     4 1   
     8     3    17 1   
     9     3    20 1   
    10     4    21 1   
    11     4    22 1   
    12     4    23 1   
    13     5     6 1   
    14     5    16 1   
    15     5    24 1   
    16     6     7 1   
    17     6    25 1   
    18     6    26 1   
    19     7     8 1   
    20     7    27 1   
    21     7    28 1   
    22     8     9 1   
    23     8    14 1   
    24     8    29 1   
    25     9    10 1   
    26     9    30 1   
    27     9    31 1   
    28    10    11 1   
    29    10    12 1   
    30    10    13 1   
    31    11    32 1   
    32    11    33 1   
    33    11    34 1   
    34    12    35 1   
    35    12    36 1   
    36    12    37 1   
    37    13    38 1   
    38    13    39 1   
    39    13    40 1   
    40    14    41 1   
    41    14    42 1   
    42    14    43 1   
    43    16    44 1   
    44    16    45 1   
    45    16    46 1   
    46    17    47 1   
    47    17    48 1   
    48    17    49 1   
@<TRIPOS>SUBSTRUCTURE
     1 V9M         1 TEMP              0 ****  ****    0 ROOT
