@<TRIPOS>MOLECULE
V9M
   49    48     1     0     0
SMALL
abcg2


@<TRIPOS>ATOM
      1 C            3.8520    41.3710    16.5690 c          1 V9M       0.715000
      2 CA           2.6540    40.6290    17.2240 c3         1 V9M      -0.049700
      3 CB           2.6120    40.8950    18.7400 c3         1 V9M      -0.050700
      4 CG1          3.9800    40.8440    19.4190 c3         1 V9M      -0.088600
      5 N            2.7740    39.1670    16.8530 nx         1 V9M      -0.654000
      6 C40          1.9500    38.2010    17.6560 c3         1 V9M       0.096600
      7 C42          2.7350    37.5470    18.7760 c3         1 V9M      -0.097400
      8 C43          1.9840    36.4580    19.5570 c3         1 V9M      -0.046700
      9 C44          0.8960    37.0170    20.5170 c3         1 V9M      -0.065400
     10 C45         -0.6280    36.9300    20.2730 c3         1 V9M      -0.041000
     11 C46         -1.1470    35.4880    20.3100 c3         1 V9M      -0.086433
     12 C47         -1.0850    37.5970    18.9770 c3         1 V9M      -0.086433
     13 C48         -1.2810    37.6820    21.4410 c3         1 V9M      -0.086433
     14 C49          1.5990    35.2820    18.6640 c3         1 V9M      -0.089100
     15 O            4.8640    40.6720    16.3620 o          1 V9M      -0.670000
     16 C54          2.4600    38.9950    15.4080 c3         1 V9M       0.087900
     17 CG2          1.9280    42.2320    19.0170 c3         1 V9M      -0.088600
     18 OXT          3.6930    42.5800    16.3610 o          1 V9M      -0.670000
     19 HA           1.7060    40.9510    16.7860 hx         1 V9M       0.074700
     20 HB           1.9750    40.1370    19.2030 hc         1 V9M       0.018700
     21 HG13         3.8510    40.8630    20.5020 hc         1 V9M       0.045367
     22 HG11         4.5470    39.9460    19.1730 hc         1 V9M       0.045367
     23 HG12         4.5910    41.7060    19.1470 hc         1 V9M       0.045367
     24 HN           3.7760    38.9590    16.9540 hn         1 V9M       0.525000
     25 H401         1.0740    38.7420    18.0060 hx         1 V9M       0.079700
     26 H402         1.5970    37.4410    16.9620 hx         1 V9M       0.079700
     27 H422         3.6290    37.0900    18.3390 hc         1 V9M       0.060700
     28 H421         3.0900    38.2950    19.4860 hc         1 V9M       0.060700
     29 H431         2.7560    36.0650    20.2250 hc         1 V9M       0.051700
     30 H442         1.0590    36.5410    21.4890 hc         1 V9M       0.040700
     31 H441         1.1330    38.0740    20.6850 hc         1 V9M       0.040700
     32 H463        -0.7870    34.9600    21.1950 hc         1 V9M       0.034256
     33 H462        -2.2390    35.4810    20.3440 hc         1 V9M       0.034256
     34 H461        -0.8510    34.9130    19.4350 hc         1 V9M       0.034256
     35 H472        -2.1740    37.5560    18.8950 hc         1 V9M       0.034256
     36 H473        -0.8000    38.6510    18.9480 hc         1 V9M       0.034256
     37 H471        -0.6800    37.1090    18.0890 hc         1 V9M       0.034256
     38 H482        -1.0140    37.2320    22.4010 hc         1 V9M       0.034256
     39 H483        -0.9680    38.7280    21.4660 hc         1 V9M       0.034256
     40 H481        -2.3700    37.6620    21.3570 hc         1 V9M       0.034256
     41 H493         1.2800    34.4250    19.2560 hc         1 V9M       0.037367
     42 H491         0.7970    35.5100    17.9610 hc         1 V9M       0.037367
     43 H492         2.4640    34.9660    18.0780 hc         1 V9M       0.037367
     44 H542         2.7050    37.9780    15.1150 hx         1 V9M       0.083367
     45 H543         1.3990    39.1750    15.2610 hx         1 V9M       0.083367
     46 H541         3.0420    39.6890    14.8120 hx         1 V9M       0.083367
     47 HG21         1.8390    42.3860    20.0930 hc         1 V9M       0.045367
     48 HG23         2.4910    43.0660    18.6020 hc         1 V9M       0.045367
     49 HG22         0.9230    42.2570    18.5930 hc         1 V9M       0.045367
@<TRIPOS>BOND
     1     1     2 1   
     2     1    15 1   
     3     1    18 1   
     4     2     3 1   
     5     2     5 1   
     6     2    19 1   
     7     3     4 1   
     8     3    17 1   
     9     3    20 1   
    10     4    21 1   
    11     4    22 1   
    12     4    23 1   
    13     5     6 1   
    14     5    16 1   
    15     5    24 1   
    16     6     7 1   
    17     6    25 1   
    18     6    26 1   
    19     7     8 1   
    20     7    27 1   
    21     7    28 1   
    22     8     9 1   
    23     8    14 1   
    24     8    29 1   
    25     9    10 1   
    26     9    30 1   
    27     9    31 1   
    28    10    11 1   
    29    10    12 1   
    30    10    13 1   
    31    11    32 1   
    32    11    33 1   
    33    11    34 1   
    34    12    35 1   
    35    12    36 1   
    36    12    37 1   
    37    13    38 1   
    38    13    39 1   
    39    13    40 1   
    40    14    41 1   
    41    14    42 1   
    42    14    43 1   
    43    16    44 1   
    44    16    45 1   
    45    16    46 1   
    46    17    47 1   
    47    17    48 1   
    48    17    49 1   
@<TRIPOS>SUBSTRUCTURE
     1 V9M         1 TEMP              0 ****  ****    0 ROOT
