@<TRIPOS>MOLECULE
V9N
   53    57     1     0     0
SMALL
No Charge or Current Charge


@<TRIPOS>ATOM
      1 N1          45.9040    16.7130     9.5060 ns         1 V9N      -0.485900
      2 C4          43.5600    17.4690     9.6150 ca         1 V9N      -0.200600
      3 C5          42.5650    18.2180    10.2810 ca         1 V9N       0.023000
      4 C6          41.2610    18.2340     9.7690 ca         1 V9N      -0.190300
      5 C7          40.9300    17.5390     8.6280 ca         1 V9N       0.172100
      6 C8          38.9710    18.2670     9.4570 c5         1 V9N       0.154600
      7 C10         40.2170    20.4980     9.9860 c3         1 V9N      -0.082100
      8 C13         39.6790    16.9850    13.6000 ca         1 V9N      -0.109500
      9 C15         39.0640    19.2870    14.0520 ca         1 V9N      -0.109500
     10 C17         44.9610    17.4550    10.1840 c          1 V9N       0.622700
     11 C20         48.9420    15.4030    11.4660 c5         1 V9N       0.175600
     12 C21         49.6330    15.7950     9.2590 c5         1 V9N       0.175600
     13 C22         48.1190    15.5550     9.1900 cx         1 V9N      -0.168700
     14 O2          45.2540    18.0730    11.1990 o          1 V9N      -0.595100
     15 C18         47.2770    16.5850     9.9090 cx         1 V9N       0.082700
     16 O3          49.9020    16.1140    10.6460 os         1 V9N      -0.457000
     17 C19         47.6770    15.3020    10.6020 cx         1 V9N      -0.168700
     18 C3          43.2090    16.7600     8.4340 ca         1 V9N      -0.006000
     19 C9          40.0850    18.9890    10.3160 c5         1 V9N       0.031600
     20 C11         39.7810    18.6470    11.7930 ca         1 V9N      -0.076300
     21 C16         39.3330    19.6240    12.7140 ca         1 V9N      -0.100500
     22 C14         39.2370    17.9680    14.4970 ca         1 V9N      -0.103000
     23 C12         39.9470    17.3210    12.2620 ca         1 V9N      -0.100500
     24 O1          39.6170    17.6950     8.2720 os         1 V9N      -0.349100
     25 C2          41.8890    16.7880     7.9160 ca         1 V9N      -0.190600
     26 C1          41.5780    16.0210     6.6510 c          1 V9N       0.621700
     27 O           42.4310    15.3710     6.0610 o          1 V9N      -0.620100
     28 N           40.2890    16.0780     6.1800 ns         1 V9N      -0.497900
     29 C           39.8070    15.4010     4.9760 c3         1 V9N       0.097300
     30 H1          45.5930    16.2340     8.6730 hn         1 V9N       0.324500
     31 H2          42.7950    18.7810    11.1840 ha         1 V9N       0.148000
     32 H3          38.1660    18.9470     9.1490 h1         1 V9N       0.068700
     33 H4          38.5080    17.4400    10.0110 h1         1 V9N       0.068700
     34 H5          40.9990    20.9690    10.5930 hc         1 V9N       0.046700
     35 H6          40.4810    20.6480     8.9320 hc         1 V9N       0.046700
     36 H7          39.2760    21.0340    10.1600 hc         1 V9N       0.046700
     37 H9          38.7210    20.0510    14.7450 ha         1 V9N       0.115000
     38 H10         49.3510    14.4130    11.7080 h1         1 V9N       0.055200
     39 H11         48.7870    15.9490    12.4060 h1         1 V9N       0.055200
     40 H12         50.2020    14.8950     8.9880 h1         1 V9N       0.055200
     41 H13         49.9750    16.6210     8.6200 h1         1 V9N       0.055200
     42 H14         47.6800    14.9750     8.3810 hc         1 V9N       0.103200
     43 H15         47.7460    17.5220    10.2210 h1         1 V9N       0.105700
     44 H16         46.9190    14.5480    10.8010 hc         1 V9N       0.103200
     45 H17         43.9590    16.1810     7.9010 ha         1 V9N       0.140000
     46 H18         39.1840    20.6560    12.4090 ha         1 V9N       0.115000
     47 H19         39.0290    17.7080    15.5330 ha         1 V9N       0.116000
     48 H20         40.2860    16.5400    11.5860 ha         1 V9N       0.115000
     49 H21         39.6430    16.6390     6.7240 hn         1 V9N       0.335500
     50 H22         38.7400    15.6180     4.8360 h1         1 V9N       0.039700
     51 H23         40.3660    15.7580     4.1020 h1         1 V9N       0.039700
     52 H24         39.9440    14.3170     5.0810 h1         1 V9N       0.039700
     53 H8          39.8130    15.9600    13.9390 ha         1 V9N       0.115000
@<TRIPOS>BOND
     1     1    10 1   
     2     1    15 1   
     3     1    30 1   
     4     2     3 ar  
     5     2    10 1   
     6     2    18 ar  
     7     3     4 ar  
     8     3    31 1   
     9     4     5 ar  
    10     4    19 1   
    11     5    24 1   
    12     5    25 ar  
    13     6    19 1   
    14     6    24 1   
    15     6    32 1   
    16     6    33 1   
    17     7    19 1   
    18     7    34 1   
    19     7    35 1   
    20     7    36 1   
    21     8    22 ar  
    22     8    23 ar  
    23     8    53 1   
    24     9    21 ar  
    25     9    22 ar  
    26     9    37 1   
    27    10    14 2   
    28    11    16 1   
    29    11    17 1   
    30    11    38 1   
    31    11    39 1   
    32    12    13 1   
    33    12    16 1   
    34    12    40 1   
    35    12    41 1   
    36    13    15 1   
    37    13    17 1   
    38    13    42 1   
    39    15    17 1   
    40    15    43 1   
    41    17    44 1   
    42    18    25 ar  
    43    18    45 1   
    44    19    20 1   
    45    20    21 ar  
    46    20    23 ar  
    47    21    46 1   
    48    22    47 1   
    49    23    48 1   
    50    25    26 1   
    51    26    27 2   
    52    26    28 1   
    53    28    29 1   
    54    28    49 1   
    55    29    50 1   
    56    29    51 1   
    57    29    52 1   
@<TRIPOS>SUBSTRUCTURE
     1 V9N         1 TEMP              0 ****  ****    0 ROOT
