@<TRIPOS>MOLECULE
V9N
   53    57     1     0     0
SMALL
abcg2


@<TRIPOS>ATOM
      1 N1          45.7600    16.5220     9.3920 ns         1 V9N      -0.485900
      2 C4          43.5440    17.4880     9.4040 ca         1 V9N      -0.200600
      3 C5          42.5790    18.1140    10.2040 ca         1 V9N       0.023000
      4 C6          41.2750    18.1360     9.7800 ca         1 V9N      -0.190300
      5 C7          40.9130    17.5670     8.5640 ca         1 V9N       0.172100
      6 C8          38.9550    18.1130     9.5330 c5         1 V9N       0.154600
      7 C10         40.1040    20.2910    10.0850 c3         1 V9N      -0.082100
      8 C13         39.8690    16.8180    13.6330 ca         1 V9N      -0.109500
      9 C15         39.4620    19.1200    14.1520 ca         1 V9N      -0.109500
     10 C17         44.9550    17.4800     9.8910 c          1 V9N       0.622700
     11 C20         48.9660    16.3180    11.4700 c5         1 V9N       0.175600
     12 C21         49.2680    15.0710     9.5540 c5         1 V9N       0.175600
     13 C22         47.7760    15.1190     9.7750 cx         1 V9N      -0.168700
     14 O2          45.3460    18.3020    10.7070 o          1 V9N      -0.595100
     15 C18         47.1510    16.4750     9.6920 cx         1 V9N       0.082700
     16 O3          49.8000    16.1230    10.3400 os         1 V9N      -0.457000
     17 C19         47.5800    15.9260    11.0200 cx         1 V9N      -0.168700
     18 C3          43.1640    16.9460     8.1830 ca         1 V9N      -0.006000
     19 C9          40.0540    18.7900    10.3860 c5         1 V9N       0.031600
     20 C11         39.8900    18.4700    11.8610 ca         1 V9N      -0.076300
     21 C16         39.6120    19.4490    12.8090 ca         1 V9N      -0.100500
     22 C14         39.5890    17.8060    14.5700 ca         1 V9N      -0.103000
     23 C12         40.0180    17.1490    12.2960 ca         1 V9N      -0.100500
     24 O1          39.5990    17.6840     8.3180 os         1 V9N      -0.349100
     25 C2          41.8450    16.9660     7.7230 ca         1 V9N      -0.190600
     26 C1          41.5680    16.3520     6.3860 c          1 V9N       0.621700
     27 O           42.4870    15.9090     5.7060 o          1 V9N      -0.620100
     28 N           40.2940    16.3090     5.9760 ns         1 V9N      -0.497900
     29 C           39.9260    15.7320     4.7050 c3         1 V9N       0.097300
     30 H1          45.3940    15.8380     8.7500 hn         1 V9N       0.324500
     31 H2          42.8590    18.5630    11.1490 ha         1 V9N       0.148000
     32 H3          38.1420    18.7890     9.2680 h1         1 V9N       0.068700
     33 H4          38.5400    17.2330    10.0270 h1         1 V9N       0.068700
     34 H5          40.9340    20.7700    10.6040 hc         1 V9N       0.046700
     35 H6          40.2400    20.4560     9.0160 hc         1 V9N       0.046700
     36 H7          39.1780    20.7870    10.3780 hc         1 V9N       0.046700
     37 H9          39.2450    19.9010    14.8700 ha         1 V9N       0.115000
     38 H10         49.2710    15.6890    12.3160 h1         1 V9N       0.055200
     39 H11         49.0520    17.3630    11.7750 h1         1 V9N       0.055200
     40 H12         49.6530    14.0920     9.8680 h1         1 V9N       0.055200
     41 H13         49.5710    15.2390     8.5180 h1         1 V9N       0.055200
     42 H14         47.1800    14.2410     9.5610 hc         1 V9N       0.103200
     43 H15         47.7380    17.2860     9.2640 h1         1 V9N       0.105700
     44 H16         46.8310    15.6700    11.7580 hc         1 V9N       0.103200
     45 H17         43.8980    16.4970     7.5270 ha         1 V9N       0.140000
     46 H18         39.5080    20.4840    12.5160 ha         1 V9N       0.115000
     47 H19         39.4730    17.5500    15.6160 ha         1 V9N       0.116000
     48 H20         40.2410    16.3640    11.5820 ha         1 V9N       0.115000
     49 H21         39.5630    16.6690     6.5660 hn         1 V9N       0.335500
     50 H22         38.8500    15.8210     4.5890 h1         1 V9N       0.039700
     51 H23         40.4050    16.2500     3.8740 h1         1 V9N       0.039700
     52 H24         40.1930    14.6760     4.6470 h1         1 V9N       0.039700
     53 H8          39.9750    15.7870    13.9460 ha         1 V9N       0.115000
@<TRIPOS>BOND
     1     1    10 1   
     2     1    15 1   
     3     1    30 1   
     4     2     3 ar  
     5     2    10 1   
     6     2    18 ar  
     7     3     4 ar  
     8     3    31 1   
     9     4     5 ar  
    10     4    19 1   
    11     5    24 1   
    12     5    25 ar  
    13     6    19 1   
    14     6    24 1   
    15     6    32 1   
    16     6    33 1   
    17     7    19 1   
    18     7    34 1   
    19     7    35 1   
    20     7    36 1   
    21     8    22 ar  
    22     8    23 ar  
    23     8    53 1   
    24     9    21 ar  
    25     9    22 ar  
    26     9    37 1   
    27    10    14 2   
    28    11    16 1   
    29    11    17 1   
    30    11    38 1   
    31    11    39 1   
    32    12    13 1   
    33    12    16 1   
    34    12    40 1   
    35    12    41 1   
    36    13    15 1   
    37    13    17 1   
    38    13    42 1   
    39    15    17 1   
    40    15    43 1   
    41    17    44 1   
    42    18    25 ar  
    43    18    45 1   
    44    19    20 1   
    45    20    21 ar  
    46    20    23 ar  
    47    21    46 1   
    48    22    47 1   
    49    23    48 1   
    50    25    26 1   
    51    26    27 2   
    52    26    28 1   
    53    28    29 1   
    54    28    49 1   
    55    29    50 1   
    56    29    51 1   
    57    29    52 1   
@<TRIPOS>SUBSTRUCTURE
     1 V9N         1 TEMP              0 ****  ****    0 ROOT
