@<TRIPOS>MOLECULE
V9O
   51    54     1     0     0
SMALL
No Charge or Current Charge


@<TRIPOS>ATOM
      1 CAA          9.3480    15.1560     4.1330 ca         1 V9O       0.117100
      2 CAB          9.8030    16.4610     3.8900 ca         1 V9O      -0.084600
      3 CAC         11.1910    16.7170     3.7710 ca         1 V9O      -0.021600
      4 CAD         12.1330    15.6480     3.9170 ca         1 V9O      -0.163600
      5 CAE         11.6520    14.3310     4.1400 ca         1 V9O      -0.162600
      6 CAF         10.2630    14.1060     4.2510 ca         1 V9O      -0.182000
      7 CAG         13.6330    15.8940     3.8600 c          1 V9O       0.608300
      8 CAH         14.5730    14.7050     3.7600 ca         1 V9O      -0.233600
      9 CAI         14.0700    13.3900     3.9560 ca         1 V9O      -0.136600
     10 CAJ         12.6010    13.1590     4.2490 c          1 V9O       0.613300
     11 CAK         15.9580    14.8900     3.4880 ca         1 V9O       0.218100
     12 CAL         16.8570    13.7920     3.3990 cp         1 V9O      -0.147000
     13 CAM         16.3240    12.4960     3.5860 ca         1 V9O       0.147100
     14 CAN         14.9630    12.2950     3.8680 ca         1 V9O       0.046100
     15 CAR          8.8080    17.5790     3.7360 c          1 V9O       0.746600
     16 CAU         11.6140    18.1390     3.4550 c          1 V9O       0.746600
     17 CBA         18.3280    14.0120     3.1340 cp         1 V9O      -0.070000
     18 CBB         19.0050    13.3940     2.0480 ca         1 V9O       0.167100
     19 CBC         20.3600    13.6600     1.7980 ca         1 V9O      -0.164000
     20 CBD         21.0770    14.5320     2.6310 ca         1 V9O      -0.086000
     21 CBE         20.4400    15.1440     3.7250 ca         1 V9O      -0.139300
     22 CBF         19.0770    14.8820     3.9670 ca         1 V9O      -0.034000
     23 CBG         21.2240    16.0850     4.6390 c3         1 V9O      -0.017100
     24 CBH         21.4840    17.4730     4.0100 c3         1 V9O       0.158800
     25 NBI         20.2360    18.2170     3.7550 n8         1 V9O      -0.998200
     26 OAO         14.5190    11.0100     4.0540 oh         1 V9O      -0.600100
     27 OAP         12.1890    12.0400     4.5560 o          1 V9O      -0.624100
     28 OAQ          8.0140    14.8830     4.2330 oh         1 V9O      -0.505100
     29 OAS          8.5440    17.9620     2.6030 o          1 V9O      -0.707000
     30 OAT          8.3140    18.0600     4.7470 o          1 V9O      -0.707000
     31 OAV         11.9350    18.4010     2.3020 o          1 V9O      -0.700500
     32 OAW         11.5680    18.9700     4.3540 o          1 V9O      -0.700500
     33 OAX         14.1000    17.0230     3.9480 o          1 V9O      -0.524100
     34 OAY         16.4410    16.1490     3.2770 oh         1 V9O      -0.564100
     35 OAZ         17.1100    11.3850     3.5000 oh         1 V9O      -0.535100
     36 OBJ         18.3580    12.5130     1.2380 oh         1 V9O      -0.546100
     37 H1           9.8900    13.0990     4.4230 ha         1 V9O       0.096000
     38 H2          20.8610    13.1800     0.9600 ha         1 V9O       0.112000
     39 H3          22.1290    14.7260     2.4310 ha         1 V9O       0.093000
     40 H4          18.5840    15.3600     4.8100 ha         1 V9O       0.127000
     41 H5          20.7060    16.2160     5.5970 hc         1 V9O       0.041700
     42 H6          22.1930    15.6320     4.8840 hc         1 V9O       0.041700
     43 H7          22.1150    18.0720     4.6790 h1         1 V9O       0.013700
     44 H8          22.0140    17.3470     3.0560 h1         1 V9O       0.013700
     45 H9          20.4510    19.0450     3.1870 hn         1 V9O       0.403000
     46 H10         19.6420    17.6470     3.1400 hn         1 V9O       0.403000
     47 H12         13.5510    11.0780     4.2890 ho         1 V9O       0.526000
     48 H13          7.9060    13.9240     4.4000 ho         1 V9O       0.420000
     49 H16         15.6980    16.7720     3.4820 ho         1 V9O       0.536000
     50 H17         16.5170    10.6360     3.7430 ho         1 V9O       0.480000
     51 H18         17.6510    12.1150     1.7980 ho         1 V9O       0.482000
@<TRIPOS>BOND
     1     1     2 ar  
     2     1     6 ar  
     3     1    28 1   
     4     2     3 ar  
     5     2    15 1   
     6     3     4 ar  
     7     3    16 1   
     8     4     5 ar  
     9     4     7 1   
    10     5     6 ar  
    11     5    10 1   
    12     6    37 1   
    13     7     8 1   
    14     7    33 2   
    15     8     9 ar  
    16     8    11 ar  
    17     9    10 1   
    18     9    14 ar  
    19    10    27 2   
    20    11    12 ar  
    21    11    34 1   
    22    12    13 ar  
    23    12    17 1   
    24    13    14 ar  
    25    13    35 1   
    26    14    26 1   
    27    15    29 1   
    28    15    30 1   
    29    16    31 1   
    30    16    32 1   
    31    17    18 ar  
    32    17    22 ar  
    33    18    19 ar  
    34    18    36 1   
    35    19    20 ar  
    36    19    38 1   
    37    20    21 ar  
    38    20    39 1   
    39    21    22 ar  
    40    21    23 1   
    41    22    40 1   
    42    23    24 1   
    43    23    41 1   
    44    23    42 1   
    45    24    25 1   
    46    24    43 1   
    47    24    44 1   
    48    25    45 1   
    49    25    46 1   
    50    26    47 1   
    51    28    48 1   
    52    34    49 1   
    53    35    50 1   
    54    36    51 1   
@<TRIPOS>SUBSTRUCTURE
     1 V9O         1 TEMP              0 ****  ****    0 ROOT
