@<TRIPOS>MOLECULE
V9O
   51    54     1     0     0
SMALL
abcg2


@<TRIPOS>ATOM
      1 CAA          9.5340    15.1520     4.3090 ca         1 V9O       0.117100
      2 CAB          9.9280    16.4120     3.8550 ca         1 V9O      -0.084600
      3 CAC         11.2610    16.6390     3.5110 ca         1 V9O      -0.021600
      4 CAD         12.2080    15.6140     3.6780 ca         1 V9O      -0.163600
      5 CAE         11.7890    14.3540     4.1380 ca         1 V9O      -0.162600
      6 CAF         10.4560    14.1220     4.4350 ca         1 V9O      -0.182000
      7 CAG         13.6350    15.8540     3.4320 c          1 V9O       0.608300
      8 CAH         14.5740    14.7450     3.5600 ca         1 V9O      -0.233600
      9 CAI         14.1390    13.4660     3.9770 ca         1 V9O      -0.136600
     10 CAJ         12.7330    13.2370     4.2950 c          1 V9O       0.613300
     11 CAK         15.9270    14.9440     3.2730 ca         1 V9O       0.218100
     12 CAL         16.8430    13.8730     3.3720 cp         1 V9O      -0.147000
     13 CAM         16.4000    12.6320     3.7830 ca         1 V9O       0.147100
     14 CAN         15.0330    12.4180     4.0970 ca         1 V9O       0.046100
     15 CAR          8.8750    17.5150     3.7650 c          1 V9O       0.746600
     16 CAU         11.5900    18.0070     2.9090 c          1 V9O       0.746600
     17 CBA         18.2730    14.0890     3.0590 cp         1 V9O      -0.070000
     18 CBB         18.8080    13.6460     1.8480 ca         1 V9O       0.167100
     19 CBC         20.1560    13.8650     1.5750 ca         1 V9O      -0.164000
     20 CBD         20.9530    14.5290     2.4900 ca         1 V9O      -0.086000
     21 CBE         20.4400    14.9910     3.7020 ca         1 V9O      -0.139300
     22 CBF         19.0970    14.7530     3.9630 ca         1 V9O      -0.034000
     23 CBG         21.2940    15.7760     4.6590 c3         1 V9O      -0.017100
     24 CBH         21.3260    17.2670     4.3200 c3         1 V9O       0.158800
     25 NBI         20.0050    17.8650     4.4280 n8         1 V9O      -0.998200
     26 OAO         14.7100    11.1880     4.4950 oh         1 V9O      -0.600100
     27 OAP         12.3480    12.1310     4.6780 o          1 V9O      -0.624100
     28 OAQ          8.2340    14.9760     4.5920 oh         1 V9O      -0.505100
     29 OAS          8.4700    17.7920     2.6240 o          1 V9O      -0.707000
     30 OAT          8.5280    18.0060     4.8520 o          1 V9O      -0.707000
     31 OAV         11.6720    18.0340     1.6720 o          1 V9O      -0.700500
     32 OAW         11.6650    18.9460     3.7180 o          1 V9O      -0.700500
     33 OAX         14.0520    16.9770     3.1300 o          1 V9O      -0.524100
     34 OAY         16.4090    16.1190     2.8920 oh         1 V9O      -0.564100
     35 OAZ         17.2780    11.6350     3.8860 oh         1 V9O      -0.535100
     36 OBJ         18.0790    13.0020     0.9140 oh         1 V9O      -0.546100
     37 H1          10.1370    13.1450     4.7790 ha         1 V9O       0.096000
     38 H2          20.5730    13.5140     0.6390 ha         1 V9O       0.112000
     39 H3          21.9990    14.6920     2.2550 ha         1 V9O       0.093000
     40 H4          18.6690    15.0870     4.9020 ha         1 V9O       0.127000
     41 H5          20.9230    15.6540     5.6790 hc         1 V9O       0.041700
     42 H6          22.3170    15.3960     4.6430 hc         1 V9O       0.041700
     43 H7          21.9870    17.7670     5.0320 h1         1 V9O       0.013700
     44 H8          21.7870    17.3900     3.3290 h1         1 V9O       0.013700
     45 H9          20.0720    18.8600     4.2560 hn         1 V9O       0.403000
     46 H10         19.4060    17.5020     3.6970 hn         1 V9O       0.403000
     47 H12         13.7410    11.1890     4.6820 ho         1 V9O       0.526000
     48 H13          8.0650    14.0680     4.8690 ho         1 V9O       0.420000
     49 H16         15.6400    16.7470     2.8920 ho         1 V9O       0.536000
     50 H17         16.8420    10.8180     4.1650 ho         1 V9O       0.480000
     51 H18         17.1430    13.0010     1.1490 ho         1 V9O       0.482000
@<TRIPOS>BOND
     1     1     2 ar  
     2     1     6 ar  
     3     1    28 1   
     4     2     3 ar  
     5     2    15 1   
     6     3     4 ar  
     7     3    16 1   
     8     4     5 ar  
     9     4     7 1   
    10     5     6 ar  
    11     5    10 1   
    12     6    37 1   
    13     7     8 1   
    14     7    33 2   
    15     8     9 ar  
    16     8    11 ar  
    17     9    10 1   
    18     9    14 ar  
    19    10    27 2   
    20    11    12 ar  
    21    11    34 1   
    22    12    13 ar  
    23    12    17 1   
    24    13    14 ar  
    25    13    35 1   
    26    14    26 1   
    27    15    29 1   
    28    15    30 1   
    29    16    31 1   
    30    16    32 1   
    31    17    18 ar  
    32    17    22 ar  
    33    18    19 ar  
    34    18    36 1   
    35    19    20 ar  
    36    19    38 1   
    37    20    21 ar  
    38    20    39 1   
    39    21    22 ar  
    40    21    23 1   
    41    22    40 1   
    42    23    24 1   
    43    23    41 1   
    44    23    42 1   
    45    24    25 1   
    46    24    43 1   
    47    24    44 1   
    48    25    45 1   
    49    25    46 1   
    50    26    47 1   
    51    28    48 1   
    52    34    49 1   
    53    35    50 1   
    54    36    51 1   
@<TRIPOS>SUBSTRUCTURE
     1 V9O         1 TEMP              0 ****  ****    0 ROOT
