@<TRIPOS>MOLECULE
V9P
   15    15     1     0     0
SMALL
No Charge or Current Charge


@<TRIPOS>ATOM
      1 N1          26.5870    15.0820    37.3350 nc         1 V9P      -0.672000
      2 C1          28.8000    15.5200    37.4470 cd         1 V9P      -0.234000
      3 C4          29.3310    16.0420    40.7610 c3         1 V9P       0.104600
      4 C3          28.8040    16.9000    39.5930 c3         1 V9P       0.069600
      5 C2          26.8120    15.8150    38.4200 cd         1 V9P       0.406400
      6 Cl          27.9840    15.1960    41.6490 cl         1 V9P      -0.272000
      7 N           28.1650    16.1090    38.5260 na         1 V9P      -0.182500
      8 C           27.8050    14.9020    36.7410 cc         1 V9P       0.237900
      9 H1          29.8660    15.5780    37.2630 h4         1 V9P       0.153000
     10 H2          30.0250    15.2770    40.3900 h1         1 V9P       0.076700
     11 H3          29.8560    16.6770    41.4850 h1         1 V9P       0.076700
     12 H4          29.6410    17.4580    39.1560 h1         1 V9P       0.071200
     13 H5          28.0830    17.6320    39.9780 h1         1 V9P       0.071200
     14 H6          26.0810    16.1580    39.1440 h5         1 V9P       0.056100
     15 H7          27.8890    14.3280    35.8270 h4         1 V9P       0.039100
@<TRIPOS>BOND
     1     1     5 2   
     2     1     8 1   
     3     2     7 1   
     4     2     8 2   
     5     2     9 1   
     6     3     4 1   
     7     3     6 1   
     8     3    10 1   
     9     3    11 1   
    10     4     7 1   
    11     4    12 1   
    12     4    13 1   
    13     5     7 1   
    14     5    14 1   
    15     8    15 1   
@<TRIPOS>SUBSTRUCTURE
     1 V9P         1 TEMP              0 ****  ****    0 ROOT
