@<TRIPOS>MOLECULE
V9P
   15    15     1     0     0
SMALL
abcg2


@<TRIPOS>ATOM
      1 N1          26.5700    15.1690    37.3080 nc         1 V9P      -0.672000
      2 C1          28.7920    15.4500    37.5560 cd         1 V9P      -0.234000
      3 C4          29.3900    16.0350    40.6690 c3         1 V9P       0.104600
      4 C3          28.7380    16.9100    39.6170 c3         1 V9P       0.069600
      5 C2          26.8000    15.9470    38.3470 cd         1 V9P       0.406400
      6 CL          28.1750    14.9900    41.5190 cl         1 V9P      -0.272000
      7 N           28.1290    16.1530    38.5380 na         1 V9P      -0.182500
      8 C           27.8160    14.8510    36.8070 cc         1 V9P       0.237900
      9 H1          29.8660    15.4490    37.4850 h4         1 V9P       0.153000
     10 H2          30.1230    15.3590    40.2380 h1         1 V9P       0.076700
     11 H3          29.8570    16.6510    41.4330 h1         1 V9P       0.076700
     12 H4          29.5090    17.5620    39.2020 h1         1 V9P       0.071200
     13 H5          27.9690    17.5380    40.0650 h1         1 V9P       0.071200
     14 H6          26.0570    16.3900    38.9910 h5         1 V9P       0.056100
     15 H7          27.9370    14.2210    35.9400 h4         1 V9P       0.039100
@<TRIPOS>BOND
     1     1     5 2   
     2     1     8 1   
     3     2     7 1   
     4     2     8 2   
     5     2     9 1   
     6     3     4 1   
     7     3     6 1   
     8     3    10 1   
     9     3    11 1   
    10     4     7 1   
    11     4    12 1   
    12     4    13 1   
    13     5     7 1   
    14     5    14 1   
    15     8    15 1   
@<TRIPOS>SUBSTRUCTURE
     1 V9P         1 TEMP              0 ****  ****    0 ROOT
