@<TRIPOS>MOLECULE
V9Q
   54    59     1     0     0
SMALL
No Charge or Current Charge


@<TRIPOS>ATOM
      1 C10         40.2800    19.7600     9.7530 c5         1 V9Q       0.017900
      2 C13         40.9560    17.9300     8.4070 ca         1 V9Q       0.176100
      3 C15         39.7780    21.1400    11.8420 ca         1 V9Q      -0.126000
      4 C17         39.4630    20.1360    14.0570 ca         1 V9Q      -0.117000
      5 C20         39.9460    16.6380    13.1030 cc         1 V9Q      -0.159100
      6 C21         40.0990    17.3390    11.9160 cd         1 V9Q      -0.243200
      7 C22         39.9340    18.7600    12.1260 ca         1 V9Q      -0.086800
      8 C26         47.2250    16.6990     9.8250 cx         1 V9Q       0.086700
      9 C28         48.8200    15.7220    11.5830 c5         1 V9Q       0.176100
     10 C01         39.5530    15.1640     5.3160 c3         1 V9Q       0.097300
     11 N02         40.1250    16.0390     6.3400 ns         1 V9Q      -0.497900
     12 O04         42.1950    15.1370     6.3570 o          1 V9Q      -0.623100
     13 C05         41.8280    16.9630     7.8660 ca         1 V9Q      -0.195600
     14 C06         43.1540    16.9290     8.3660 ca         1 V9Q      -0.005000
     15 C07         43.5950    17.8380     9.3660 ca         1 V9Q      -0.200600
     16 C08         42.6860    18.7970     9.8650 ca         1 V9Q       0.027000
     17 C09         41.3780    18.8190     9.3680 ca         1 V9Q      -0.184300
     18 C11         39.0830    18.9910     9.0810 c5         1 V9Q       0.155600
     19 O12         39.6440    18.1120     8.0480 os         1 V9Q      -0.352100
     20 C14         39.9930    19.8690    11.2540 ca         1 V9Q      -0.040300
     21 C16         39.5150    21.2740    13.2260 ca         1 V9Q      -0.093000
     22 C18         39.6800    18.8880    13.4650 ca         1 V9Q      -0.052200
     23 N19         39.6830    17.6370    14.0630 na         1 V9Q      -0.221700
     24 C23         45.0050    17.8200     9.9150 c          1 V9Q       0.622700
     25 O24         45.3780    18.6160    10.7660 o          1 V9Q      -0.597100
     26 N25         45.8590    16.8630     9.4120 ns         1 V9Q      -0.486900
     27 C27         47.5300    15.5570    10.7680 cx         1 V9Q      -0.170700
     28 O29         49.8160    16.1590    10.6270 os         1 V9Q      -0.457000
     29 C30         49.4880    15.5840     9.3390 c5         1 V9Q       0.176100
     30 C31         47.9570    15.4710     9.3310 cx         1 V9Q      -0.170700
     31 H1          40.4230    20.7400     9.2830 hc         1 V9Q       0.075700
     32 H2          39.8130    22.0330    11.2230 ha         1 V9Q       0.111000
     33 H3          39.2630    20.2280    15.1220 ha         1 V9Q       0.115000
     34 H4          40.0000    15.5760    13.3320 h4         1 V9Q       0.213000
     35 H5          40.3170    16.8670    10.9620 ha         1 V9Q       0.208000
     36 H6          47.7800    17.6340     9.9310 h1         1 V9Q       0.107700
     37 H7          49.1480    14.7710    12.0240 h1         1 V9Q       0.054700
     38 H8          48.7360    16.4630    12.3900 h1         1 V9Q       0.054700
     39 H9          38.5050    15.4390     5.1430 h1         1 V9Q       0.039700
     40 H10         40.1160    15.2740     4.3800 h1         1 V9Q       0.039700
     41 H11         39.6030    14.1200     5.6520 h1         1 V9Q       0.039700
     42 H12         39.5430    16.7590     6.7560 hn         1 V9Q       0.335500
     43 H13         43.8380    16.1860     7.9630 ha         1 V9Q       0.139000
     44 H14         42.9850    19.5130    10.6290 ha         1 V9Q       0.148000
     45 H15         38.3470    19.6700     8.6310 h1         1 V9Q       0.069200
     46 H16         38.5530    18.3590     9.8050 h1         1 V9Q       0.069200
     47 H17         39.3520    22.2610    13.6530 ha         1 V9Q       0.115000
     48 H18         39.5190    17.4700    15.0520 hn         1 V9Q       0.351000
     49 H19         45.4830    16.2420     8.7090 hn         1 V9Q       0.324500
     50 H20         46.7160    14.9320    11.1240 hc         1 V9Q       0.102700
     51 H21         49.9700    14.6010     9.2590 h1         1 V9Q       0.054700
     52 H22         49.8830    16.2260     8.5400 h1         1 V9Q       0.054700
     53 H23         47.4500    14.7780     8.6640 hc         1 V9Q       0.102700
     54 C03         41.4170    15.9710     6.8000 c          1 V9Q       0.622700
@<TRIPOS>BOND
     1     1    17 1   
     2     1    18 1   
     3     1    20 1   
     4     1    31 1   
     5     2    13 ar  
     6     2    17 ar  
     7     2    19 1   
     8     3    20 ar  
     9     3    21 ar  
    10     3    32 1   
    11     4    21 ar  
    12     4    22 ar  
    13     4    33 1   
    14     5     6 2   
    15     5    23 1   
    16     5    34 1   
    17     6     7 1   
    18     6    35 1   
    19     7    20 ar  
    20     7    22 ar  
    21     8    26 1   
    22     8    27 1   
    23     8    30 1   
    24     8    36 1   
    25     9    27 1   
    26     9    28 1   
    27     9    37 1   
    28     9    38 1   
    29    10    11 1   
    30    10    39 1   
    31    10    40 1   
    32    10    41 1   
    33    11    42 1   
    34    11    54 1   
    35    12    54 2   
    36    13    14 ar  
    37    13    54 1   
    38    14    15 ar  
    39    14    43 1   
    40    15    16 ar  
    41    15    24 1   
    42    16    17 ar  
    43    16    44 1   
    44    18    19 1   
    45    18    45 1   
    46    18    46 1   
    47    21    47 1   
    48    22    23 1   
    49    23    48 1   
    50    24    25 2   
    51    24    26 1   
    52    26    49 1   
    53    27    30 1   
    54    27    50 1   
    55    28    29 1   
    56    29    30 1   
    57    29    51 1   
    58    29    52 1   
    59    30    53 1   
@<TRIPOS>SUBSTRUCTURE
     1 V9Q         1 TEMP              0 ****  ****    0 ROOT
