@<TRIPOS>MOLECULE
V9Q
   54    59     1     0     0
SMALL
abcg2


@<TRIPOS>ATOM
      1 C10         40.3000    19.6970     9.8590 c5         1 V9Q       0.017900
      2 C13         40.9510    17.9980     8.3610 ca         1 V9Q       0.176100
      3 C15         40.0510    20.9090    12.0370 ca         1 V9Q      -0.126000
      4 C17         39.7670    19.8090    14.1780 ca         1 V9Q      -0.117000
      5 C20         39.8890    16.4410    12.9360 cc         1 V9Q      -0.159100
      6 C21         40.0450    17.1250    11.7650 cd         1 V9Q      -0.243200
      7 C22         40.0170    18.5180    12.0940 ca         1 V9Q      -0.086800
      8 C26         47.1180    16.6200     9.6130 cx         1 V9Q       0.086700
      9 C28         48.8940    16.6520    11.4440 c5         1 V9Q       0.176100
     10 C01         39.5930    15.2790     5.1950 c3         1 V9Q       0.097300
     11 N02         40.0870    16.1730     6.2150 ns         1 V9Q      -0.497900
     12 O04         42.1720    15.3470     6.1520 o          1 V9Q      -0.623100
     13 C05         41.7730    17.0850     7.7060 ca         1 V9Q      -0.195600
     14 C06         43.1080    17.0550     8.1140 ca         1 V9Q      -0.005000
     15 C07         43.6060    17.8760     9.1170 ca         1 V9Q      -0.200600
     16 C08         42.7460    18.7880     9.7430 ca         1 V9Q       0.027000
     17 C09         41.4290    18.8320     9.3650 ca         1 V9Q      -0.184300
     18 C11         39.1010    19.0930     9.0920 c5         1 V9Q       0.155600
     19 O12         39.6450    18.1720     8.1230 os         1 V9Q      -0.352100
     20 C14         40.1220    19.7100    11.3520 ca         1 V9Q      -0.040300
     21 C16         39.8750    20.9620    13.4290 ca         1 V9Q      -0.093000
     22 C18         39.8400    18.5950    13.4950 ca         1 V9Q      -0.052200
     23 N19         39.7680    17.3190    13.9710 na         1 V9Q      -0.221700
     24 C23         45.0350    17.8570     9.5510 c          1 V9Q       0.622700
     25 O24         45.5310    18.8120    10.1320 o          1 V9Q      -0.597100
     26 N25         45.7390    16.7400     9.2790 ns         1 V9Q      -0.486900
     27 C27         47.4780    16.3250    11.0390 cx         1 V9Q      -0.170700
     28 O29         49.7170    16.1270    10.4160 os         1 V9Q      -0.457000
     29 C30         49.0740    15.0060     9.8370 c5         1 V9Q       0.176100
     30 C31         47.5950    15.2570     9.9960 cx         1 V9Q      -0.170700
     31 H1          40.4630    20.7260     9.5260 hc         1 V9Q       0.075700
     32 H2          40.1330    21.8370    11.4830 ha         1 V9Q       0.111000
     33 H3          39.6300    19.8430    15.2510 ha         1 V9Q       0.115000
     34 H4          39.8590    15.3770    13.1120 h4         1 V9Q       0.213000
     35 H5          40.1690    16.6730    10.7950 ha         1 V9Q       0.208000
     36 H6          47.7860    17.2580     9.0370 h1         1 V9Q       0.107700
     37 H7          49.1140    16.1930    12.4170 h1         1 V9Q       0.054700
     38 H8          49.0940    17.7230    11.5220 h1         1 V9Q       0.054700
     39 H9          38.5420    15.4970     5.0290 h1         1 V9Q       0.039700
     40 H10         40.1240    15.4110     4.2510 h1         1 V9Q       0.039700
     41 H11         39.6840    14.2340     5.4940 h1         1 V9Q       0.039700
     42 H12         39.4420    16.8250     6.6300 hn         1 V9Q       0.335500
     43 H13         43.7550    16.3640     7.5910 ha         1 V9Q       0.139000
     44 H14         43.1160    19.4390    10.5250 ha         1 V9Q       0.148000
     45 H15         38.5250    19.8450     8.5560 h1         1 V9Q       0.069200
     46 H16         38.4300    18.5370     9.7480 h1         1 V9Q       0.069200
     47 H17         39.8240    21.9250    13.9190 ha         1 V9Q       0.115000
     48 H18         39.6460    17.0630    14.9370 hn         1 V9Q       0.351000
     49 H19         45.2910    15.9550     8.8380 hn         1 V9Q       0.324500
     50 H20         46.6980    16.3080    11.7890 hc         1 V9Q       0.102700
     51 H21         49.3430    14.0720    10.3480 h1         1 V9Q       0.054700
     52 H22         49.4010    14.9300     8.7970 h1         1 V9Q       0.054700
     53 H23         46.9110    14.4180     9.9530 hc         1 V9Q       0.102700
     54 C03         41.3600    16.1330     6.6270 c          1 V9Q       0.622700
@<TRIPOS>BOND
     1     1    17 1   
     2     1    18 1   
     3     1    20 1   
     4     1    31 1   
     5     2    13 ar  
     6     2    17 ar  
     7     2    19 1   
     8     3    20 ar  
     9     3    21 ar  
    10     3    32 1   
    11     4    21 ar  
    12     4    22 ar  
    13     4    33 1   
    14     5     6 2   
    15     5    23 1   
    16     5    34 1   
    17     6     7 1   
    18     6    35 1   
    19     7    20 ar  
    20     7    22 ar  
    21     8    26 1   
    22     8    27 1   
    23     8    30 1   
    24     8    36 1   
    25     9    27 1   
    26     9    28 1   
    27     9    37 1   
    28     9    38 1   
    29    10    11 1   
    30    10    39 1   
    31    10    40 1   
    32    10    41 1   
    33    11    42 1   
    34    11    54 1   
    35    12    54 2   
    36    13    14 ar  
    37    13    54 1   
    38    14    15 ar  
    39    14    43 1   
    40    15    16 ar  
    41    15    24 1   
    42    16    17 ar  
    43    16    44 1   
    44    18    19 1   
    45    18    45 1   
    46    18    46 1   
    47    21    47 1   
    48    22    23 1   
    49    23    48 1   
    50    24    25 2   
    51    24    26 1   
    52    26    49 1   
    53    27    30 1   
    54    27    50 1   
    55    28    29 1   
    56    29    30 1   
    57    29    51 1   
    58    29    52 1   
    59    30    53 1   
@<TRIPOS>SUBSTRUCTURE
     1 V9Q         1 TEMP              0 ****  ****    0 ROOT
