@<TRIPOS>MOLECULE
V9R
   84    87     1     0     0
SMALL
abcg2


@<TRIPOS>ATOM
      1 O26         -7.6620   -22.6500    -3.8800 o          1 V9R      -0.540000
      2 C24         -7.0650   -23.3670    -3.0980 c          1 V9R       0.657100
      3 O25         -5.8550   -23.1270    -2.5660 os         1 V9R      -0.482100
      4 C27         -5.0880   -21.9040    -2.8800 c3         1 V9R       0.220000
      5 C31         -3.8180   -22.0930    -2.0570 c3         1 V9R      -0.108767
      6 C32         -5.8510   -20.6710    -2.4100 c3         1 V9R      -0.108767
      7 C33         -4.7580   -21.8600    -4.3670 c3         1 V9R      -0.108767
      8 N23         -7.5280   -24.5580    -2.6190 ns         1 V9R      -0.401100
      9 C19         -8.7010   -25.2220    -2.9620 cc         1 V9R      -0.046600
     10 C21         -8.8220   -26.4980    -2.2810 c          1 V9R       0.533200
     11 O22         -7.9680   -26.8950    -1.4680 o          1 V9R      -0.611000
     12 C18         -9.6730   -24.7860    -3.8210 cd         1 V9R      -0.133000
     13 C17        -10.8110   -25.5900    -4.0500 cd         1 V9R      -0.263000
     14 C16        -10.9290   -26.7870    -3.4220 cc         1 V9R      -0.047400
     15 N15         -9.9570   -27.2380    -2.5750 n          1 V9R      -0.235000
     16 C20        -10.1090   -28.5310    -1.8960 c3         1 V9R       0.007700
     17 C22        -10.5470   -29.6750    -2.8190 c3         1 V9R      -0.053400
     18 C29         -9.5260   -29.9570    -3.8950 cx         1 V9R      -0.132700
     19 C34         -9.7290   -29.4210    -5.2890 cx         1 V9R      -0.126400
     20 C30         -9.8900   -30.8920    -5.0090 cx         1 V9R      -0.126400
     21 C36        -11.0440   -28.3580    -0.6900 c          1 V9R       0.596100
     22 O37        -11.9970   -27.5880    -0.7190 o          1 V9R      -0.609100
     23 N38        -10.6850   -29.0960     0.3730 ns         1 V9R      -0.500900
     24 C40        -11.2670   -29.0680     1.7120 c3         1 V9R       0.104700
     25 C42        -11.7980   -27.7020     2.1590 c3         1 V9R      -0.053400
     26 C45        -10.8880   -26.4830     1.9190 c5         1 V9R      -0.147700
     27 C47        -10.9050   -25.5050     3.0940 c          1 V9R       0.558000
     28 O48        -11.8660   -25.2580     3.8190 o          1 V9R      -0.566000
     29 N49         -9.6900   -24.9320     3.1740 ns         1 V9R      -0.516900
     30 C51         -8.7100   -25.4380     2.2220 c5         1 V9R       0.103000
     31 C54         -9.3870   -26.6990     1.6600 c5         1 V9R      -0.091400
     32 C57        -12.3110   -30.1970     1.9690 c3         1 V9R       0.072300
     33 O40        -11.7020   -31.2610     2.6740 oh         1 V9R      -0.661000
     34 C35        -12.9650   -30.7900     0.7060 c          1 V9R       0.565100
     35 O41        -12.7440   -31.9730     0.4310 o          1 V9R      -0.629100
     36 N36        -13.7900   -30.0030     0.0100 ns         1 V9R      -0.479900
     37 C13        -14.6580   -30.5030    -1.0520 c3         1 V9R       0.144300
     38 C14        -14.3530   -29.9750    -2.4340 ca         1 V9R      -0.112300
     39 C28        -14.1330   -30.8630    -3.4850 ca         1 V9R      -0.091000
     40 C26        -13.9140   -30.3970    -4.7770 ca         1 V9R      -0.121000
     41 C25        -13.9060   -29.0300    -5.0300 ca         1 V9R      -0.110000
     42 C23        -14.1290   -28.1350    -3.9860 ca         1 V9R      -0.121000
     43 C15        -14.3520   -28.6050    -2.6980 ca         1 V9R      -0.091000
     44 H1          -4.0520   -22.1210    -0.9920 hc         1 V9R       0.051811
     45 H2          -3.3200   -23.0220    -2.3360 hc         1 V9R       0.051811
     46 H3          -3.1380   -21.2620    -2.2430 hc         1 V9R       0.051811
     47 H4          -6.1040   -20.7650    -1.3530 hc         1 V9R       0.051811
     48 H5          -5.2170   -19.7930    -2.5350 hc         1 V9R       0.051811
     49 H6          -6.7650   -20.5260    -2.9810 hc         1 V9R       0.051811
     50 H7          -4.1130   -21.0020    -4.5600 hc         1 V9R       0.051811
     51 H8          -4.2230   -22.7640    -4.6640 hc         1 V9R       0.051811
     52 H9          -5.6550   -21.7640    -4.9730 hc         1 V9R       0.051811
     53 H10         -9.5730   -23.8320    -4.3120 ha         1 V9R       0.224000
     54 H12        -11.5940   -25.2650    -4.7180 ha         1 V9R       0.201000
     55 H13        -11.7800   -27.4320    -3.5470 h4         1 V9R       0.218000
     56 H14         -9.1150   -28.7640    -1.5220 h1         1 V9R       0.100700
     57 H15        -11.5220   -29.4700    -3.2610 hc         1 V9R       0.065700
     58 H16        -10.6880   -30.5520    -2.1810 hc         1 V9R       0.065700
     59 H17         -8.5000   -29.9800    -3.5440 hc         1 V9R       0.083700
     60 H18         -8.8460   -29.1170    -5.8350 hc         1 V9R       0.073700
     61 H19        -10.6140   -28.8290    -5.4780 hc         1 V9R       0.073700
     62 H20        -10.8920   -31.3000    -4.9930 hc         1 V9R       0.073700
     63 H21         -9.1320   -31.5560    -5.4010 hc         1 V9R       0.073700
     64 H22         -9.9090   -29.7400     0.2470 hn         1 V9R       0.325500
     65 H23        -10.4400   -29.3430     2.3680 h1         1 V9R       0.074700
     66 H24        -12.7610   -27.5150     1.6900 hc         1 V9R       0.064200
     67 H25        -11.9900   -27.7970     3.2290 hc         1 V9R       0.064200
     68 H26        -11.3020   -25.9220     1.0770 hc         1 V9R       0.090700
     69 H27         -9.4680   -24.2560     3.8880 hn         1 V9R       0.329500
     70 H28         -7.7650   -25.6660     2.7120 h1         1 V9R       0.048200
     71 H29         -8.5180   -24.7030     1.4350 h1         1 V9R       0.048200
     72 H30         -9.1510   -26.8170     0.6090 hc         1 V9R       0.062200
     73 H31         -9.0190   -27.5840     2.1800 hc         1 V9R       0.062200
     74 H32        -13.1210   -29.7780     2.5730 h1         1 V9R       0.075700
     75 H33        -11.8090   -32.0410     2.0960 ho         1 V9R       0.481000
     76 H34        -13.8830   -29.0370     0.2820 hn         1 V9R       0.334500
     77 H35        -15.6870   -30.2520    -0.7810 h1         1 V9R       0.066700
     78 H36        -14.5750   -31.5870    -1.0470 h1         1 V9R       0.066700
     79 H37        -14.1360   -31.9290    -3.2870 ha         1 V9R       0.121500
     80 H38        -13.7560   -31.0990    -5.5860 ha         1 V9R       0.117000
     81 H39        -13.7240   -28.6600    -6.0310 ha         1 V9R       0.115000
     82 H40        -14.1310   -27.0690    -4.1760 ha         1 V9R       0.117000
     83 H41        -14.5180   -27.9020    -1.8920 ha         1 V9R       0.121500
     84 H42         -6.9540   -25.0590    -1.9530 hn         1 V9R       0.354500
@<TRIPOS>BOND
     1     1     2 2   
     2     2     3 1   
     3     2     8 1   
     4     3     4 1   
     5     4     5 1   
     6     4     6 1   
     7     4     7 1   
     8     5    44 1   
     9     5    45 1   
    10     5    46 1   
    11     6    47 1   
    12     6    48 1   
    13     6    49 1   
    14     7    50 1   
    15     7    51 1   
    16     7    52 1   
    17     8     9 1   
    18     8    84 1   
    19     9    10 1   
    20     9    12 2   
    21    10    11 2   
    22    10    15 1   
    23    12    13 1   
    24    12    53 1   
    25    13    14 2   
    26    13    54 1   
    27    14    15 1   
    28    14    55 1   
    29    15    16 1   
    30    16    17 1   
    31    16    21 1   
    32    16    56 1   
    33    17    18 1   
    34    17    57 1   
    35    17    58 1   
    36    18    19 1   
    37    18    20 1   
    38    18    59 1   
    39    19    20 1   
    40    19    60 1   
    41    19    61 1   
    42    20    62 1   
    43    20    63 1   
    44    21    22 2   
    45    21    23 1   
    46    23    24 1   
    47    23    64 1   
    48    24    25 1   
    49    24    32 1   
    50    24    65 1   
    51    25    26 1   
    52    25    66 1   
    53    25    67 1   
    54    26    27 1   
    55    26    31 1   
    56    26    68 1   
    57    27    28 2   
    58    27    29 1   
    59    29    30 1   
    60    29    69 1   
    61    30    31 1   
    62    30    70 1   
    63    30    71 1   
    64    31    72 1   
    65    31    73 1   
    66    32    33 1   
    67    32    34 1   
    68    32    74 1   
    69    33    75 1   
    70    34    35 2   
    71    34    36 1   
    72    36    37 1   
    73    36    76 1   
    74    37    38 1   
    75    37    77 1   
    76    37    78 1   
    77    38    39 ar  
    78    38    43 ar  
    79    39    40 ar  
    80    39    79 1   
    81    40    41 ar  
    82    40    80 1   
    83    41    42 ar  
    84    41    81 1   
    85    42    43 ar  
    86    42    82 1   
    87    43    83 1   
@<TRIPOS>SUBSTRUCTURE
     1 V9R         1 TEMP              0 ****  ****    0 ROOT
