@<TRIPOS>MOLECULE
V9R
   84    87     1     0     0
SMALL
No Charge or Current Charge


@<TRIPOS>ATOM
      1 O26         -8.4340   -22.4640    -4.9470 o          1 V9R      -0.540000
      2 C24         -7.6700   -23.0020    -4.1620 c          1 V9R       0.657100
      3 O25         -6.3900   -22.6130    -3.8710 os         1 V9R      -0.482100
      4 C27         -5.7610   -21.4650    -4.4880 c3         1 V9R       0.220000
      5 C31         -4.3500   -21.4220    -3.8610 c3         1 V9R      -0.108767
      6 C32         -6.5440   -20.1790    -4.1170 c3         1 V9R      -0.108767
      7 C33         -5.6520   -21.6900    -6.0190 c3         1 V9R      -0.108767
      8 N23         -7.9350   -24.1150    -3.4050 ns         1 V9R      -0.401100
      9 C19         -9.0800   -24.9230    -3.3030 cc         1 V9R      -0.046600
     10 C21         -8.9360   -26.0600    -2.3410 c          1 V9R       0.533200
     11 O22         -7.9000   -26.2480    -1.7070 o          1 V9R      -0.611000
     12 C18        -10.2440   -24.7040    -4.0200 cd         1 V9R      -0.133000
     13 C17        -11.3470   -25.6030    -3.8330 cd         1 V9R      -0.263000
     14 C16        -11.2330   -26.6580    -2.9540 cc         1 V9R      -0.047400
     15 N15        -10.0730   -26.8970    -2.2110 n          1 V9R      -0.235000
     16 C20         -9.9870   -28.1010    -1.3150 c3         1 V9R       0.007700
     17 C22         -9.9920   -29.4290    -2.1260 c3         1 V9R      -0.053400
     18 C29         -8.9020   -29.4970    -3.1950 cx         1 V9R      -0.132700
     19 C34         -9.1340   -28.9700    -4.5930 cx         1 V9R      -0.126400
     20 C30         -9.0150   -30.4580    -4.3550 cx         1 V9R      -0.126400
     21 C36        -11.0420   -28.1190    -0.1750 c          1 V9R       0.596100
     22 O37        -11.9680   -27.3240    -0.0990 o          1 V9R      -0.609100
     23 N38        -10.8720   -29.1240     0.7610 ns         1 V9R      -0.500900
     24 C40        -11.6890   -29.3320     1.9740 c3         1 V9R       0.104700
     25 C42        -11.4180   -28.2180     3.0240 c3         1 V9R      -0.053400
     26 C45         -9.9210   -27.9800     3.3730 c5         1 V9R      -0.147700
     27 C47         -9.7030   -26.9110     4.4520 c          1 V9R       0.558000
     28 O48        -10.4360   -26.0040     4.8100 o          1 V9R      -0.566000
     29 N49         -8.6070   -27.3140     5.1630 ns         1 V9R      -0.516900
     30 C51         -7.9700   -28.5320     4.6670 c5         1 V9R       0.103000
     31 C54         -9.1740   -29.2120     3.9580 c5         1 V9R      -0.091400
     32 C57        -13.2120   -29.5130     1.6790 c3         1 V9R       0.072300
     33 O40        -13.8930   -30.0090     2.8630 oh         1 V9R      -0.661000
     34 C35        -13.4660   -30.4420     0.4530 c          1 V9R       0.565100
     35 O41        -13.4920   -31.6630     0.5510 o          1 V9R      -0.629100
     36 N36        -13.7380   -29.8010    -0.7350 ns         1 V9R      -0.479900
     37 C13        -14.0620   -30.4810    -1.9880 c3         1 V9R       0.144300
     38 C14        -13.9720   -29.5360    -3.1780 ca         1 V9R      -0.112300
     39 C28        -13.1270   -29.8390    -4.2650 ca         1 V9R      -0.091000
     40 C26        -13.0400   -28.9650    -5.3620 ca         1 V9R      -0.121000
     41 C25        -13.8040   -27.7870    -5.3850 ca         1 V9R      -0.110000
     42 C23        -14.6560   -27.4830    -4.3100 ca         1 V9R      -0.121000
     43 C15        -14.7420   -28.3550    -3.2110 ca         1 V9R      -0.091000
     44 H1          -4.4110   -21.3080    -2.7720 hc         1 V9R       0.051811
     45 H2          -3.7990   -22.3450    -4.0780 hc         1 V9R       0.051811
     46 H3          -3.7720   -20.5790    -4.2590 hc         1 V9R       0.051811
     47 H4          -6.7460   -20.1440    -3.0400 hc         1 V9R       0.051811
     48 H5          -5.9610   -19.2880    -4.3810 hc         1 V9R       0.051811
     49 H6          -7.4980   -20.1100    -4.6510 hc         1 V9R       0.051811
     50 H7          -4.9830   -20.9450    -6.4670 hc         1 V9R       0.051811
     51 H8          -5.2460   -22.6840    -6.2380 hc         1 V9R       0.051811
     52 H9          -6.6220   -21.5940    -6.5180 hc         1 V9R       0.051811
     53 H10        -10.3470   -23.8780    -4.7170 ha         1 V9R       0.224000
     54 H12        -12.2730   -25.4560    -4.3850 ha         1 V9R       0.201000
     55 H13        -12.0170   -27.3840    -2.7640 h4         1 V9R       0.218000
     56 H14         -9.0320   -28.0780    -0.7780 h1         1 V9R       0.100700
     57 H15        -10.9770   -29.5650    -2.5840 hc         1 V9R       0.065700
     58 H16         -9.8580   -30.2780    -1.4460 hc         1 V9R       0.065700
     59 H17         -7.9060   -29.3550    -2.7810 hc         1 V9R       0.083700
     60 H18         -8.3070   -28.4650    -5.0850 hc         1 V9R       0.073700
     61 H19        -10.1170   -28.5740    -4.8370 hc         1 V9R       0.073700
     62 H20         -9.9190   -31.0570    -4.4390 hc         1 V9R       0.073700
     63 H21         -8.1080   -30.9550    -4.6910 hc         1 V9R       0.073700
     64 H22        -10.0760   -29.7370     0.6230 hn         1 V9R       0.325500
     65 H23        -11.3410   -30.2790     2.4100 h1         1 V9R       0.074700
     66 H24        -11.8550   -27.2790     2.6600 hc         1 V9R       0.064200
     67 H25        -11.9640   -28.4630     3.9430 hc         1 V9R       0.064200
     68 H26         -9.3810   -27.6390     2.4820 hc         1 V9R       0.090700
     69 H27         -8.3330   -26.7880     5.9850 hn         1 V9R       0.329500
     70 H28         -7.5590   -29.1580     5.4700 h1         1 V9R       0.048200
     71 H29         -7.1630   -28.3000     3.9580 h1         1 V9R       0.048200
     72 H30         -8.8600   -29.9330     3.1940 hc         1 V9R       0.062200
     73 H31         -9.7970   -29.7480     4.6840 hc         1 V9R       0.062200
     74 H32        -13.6250   -28.5300     1.4160 h1         1 V9R       0.075700
     75 H33        -13.9090   -30.9930     2.7900 ho         1 V9R       0.481000
     76 H34        -13.6880   -28.7880    -0.7320 hn         1 V9R       0.334500
     77 H35        -15.0800   -30.8870    -1.9180 h1         1 V9R       0.066700
     78 H36        -13.3700   -31.3240    -2.1250 h1         1 V9R       0.066700
     79 H37        -12.5330   -30.7510    -4.2600 ha         1 V9R       0.121500
     80 H38        -12.3830   -29.2030    -6.1950 ha         1 V9R       0.117000
     81 H39        -13.7380   -27.1120    -6.2360 ha         1 V9R       0.115000
     82 H40        -15.2510   -26.5720    -4.3290 ha         1 V9R       0.117000
     83 H41        -15.4100   -28.1130    -2.3870 ha         1 V9R       0.121500
     84 H42         -7.1430   -24.3750    -2.8290 hn         1 V9R       0.354500
@<TRIPOS>BOND
     1     1     2 2   
     2     2     3 1   
     3     2     8 1   
     4     3     4 1   
     5     4     5 1   
     6     4     6 1   
     7     4     7 1   
     8     5    44 1   
     9     5    45 1   
    10     5    46 1   
    11     6    47 1   
    12     6    48 1   
    13     6    49 1   
    14     7    50 1   
    15     7    51 1   
    16     7    52 1   
    17     8     9 1   
    18     8    84 1   
    19     9    10 1   
    20     9    12 2   
    21    10    11 2   
    22    10    15 1   
    23    12    13 1   
    24    12    53 1   
    25    13    14 2   
    26    13    54 1   
    27    14    15 1   
    28    14    55 1   
    29    15    16 1   
    30    16    17 1   
    31    16    21 1   
    32    16    56 1   
    33    17    18 1   
    34    17    57 1   
    35    17    58 1   
    36    18    19 1   
    37    18    20 1   
    38    18    59 1   
    39    19    20 1   
    40    19    60 1   
    41    19    61 1   
    42    20    62 1   
    43    20    63 1   
    44    21    22 2   
    45    21    23 1   
    46    23    24 1   
    47    23    64 1   
    48    24    25 1   
    49    24    32 1   
    50    24    65 1   
    51    25    26 1   
    52    25    66 1   
    53    25    67 1   
    54    26    27 1   
    55    26    31 1   
    56    26    68 1   
    57    27    28 2   
    58    27    29 1   
    59    29    30 1   
    60    29    69 1   
    61    30    31 1   
    62    30    70 1   
    63    30    71 1   
    64    31    72 1   
    65    31    73 1   
    66    32    33 1   
    67    32    34 1   
    68    32    74 1   
    69    33    75 1   
    70    34    35 2   
    71    34    36 1   
    72    36    37 1   
    73    36    76 1   
    74    37    38 1   
    75    37    77 1   
    76    37    78 1   
    77    38    39 ar  
    78    38    43 ar  
    79    39    40 ar  
    80    39    79 1   
    81    40    41 ar  
    82    40    80 1   
    83    41    42 ar  
    84    41    81 1   
    85    42    43 ar  
    86    42    82 1   
    87    43    83 1   
@<TRIPOS>SUBSTRUCTURE
     1 V9R         1 TEMP              0 ****  ****    0 ROOT
