@<TRIPOS>MOLECULE
V9S
   75    80     1     0     0
SMALL
No Charge or Current Charge


@<TRIPOS>ATOM
      1 S1          -4.2810    -3.3330    20.8810 ss         1 V9S       0.032600
      2 C17         -5.0690    -1.0690    25.6950 ca         1 V9S      -0.144900
      3 C21         -5.0030     0.5230    27.5460 ca         1 V9S      -0.130000
      4 C31          0.0830     6.1260    18.0120 ca         1 V9S      -0.106500
      5 O2          -1.7400     5.7180    26.1210 o          1 V9S      -0.697000
      6 O3          -0.1740     5.5540    24.6630 o          1 V9S      -0.697000
      7 C26         -2.1020     4.1580    24.3400 ca         1 V9S       0.307500
      8 C25         -2.2070     4.1920    22.9190 ca         1 V9S       0.111100
      9 O4          -1.6030     5.2100    22.1990 os         1 V9S      -0.302100
     10 C28         -1.6810     5.2950    20.7660 c3         1 V9S       0.165600
     11 C29         -0.8890     6.5390    20.3260 c3         1 V9S      -0.040100
     12 C30         -0.9100     6.7220    18.8140 ca         1 V9S      -0.070300
     13 C35         -1.9280     7.4820    18.2040 ca         1 V9S      -0.106500
     14 C34         -1.9510     7.6460    16.8080 ca         1 V9S      -0.114500
     15 C33         -0.9570     7.0500    16.0140 ca         1 V9S      -0.121000
     16 C32          0.0590     6.2900    16.6160 ca         1 V9S      -0.114500
     17 C24         -2.9690     3.1930    22.2740 ca         1 V9S      -0.198000
     18 C23         -3.5920     2.2090    23.0600 ca         1 V9S      -0.143000
     19 N5          -2.7380     3.1930    25.0840 nb         1 V9S      -0.640000
     20 C22         -3.4570     2.2260    24.4710 cp         1 V9S       0.334500
     21 C19         -4.1090     1.1980    25.3590 cp         1 V9S      -0.105500
     22 C20         -4.3940     1.4790    26.7200 ca         1 V9S      -0.050000
     23 C16         -5.3470    -0.7440    27.0440 ca         1 V9S      -0.072300
     24 C15         -6.0100    -1.7570    27.9770 c6         1 V9S      -0.030100
     25 C14         -6.8980    -2.7510    27.2090 c6         1 V9S      -0.064400
     26 C13         -6.0970    -3.4450    26.0880 c6         1 V9S      -0.148700
     27 C18         -4.4520    -0.0930    24.8740 ca         1 V9S      -0.075000
     28 C12         -5.4010    -2.4380    25.1520 ce         1 V9S       0.428900
     29 N4          -5.0810    -2.7440    23.9200 n2         1 V9S      -0.429400
     30 N3          -5.0010    -4.0470    23.4650 nu         1 V9S      -0.616200
     31 C10         -4.6680    -4.4220    22.1890 cc         1 V9S       0.710300
     32 N2          -4.6380    -5.7130    21.9310 nd         1 V9S      -0.752000
     33 C11         -4.0550    -4.7430    19.8850 cc         1 V9S      -0.240000
     34 C9          -4.2810    -5.9130    20.5870 cd         1 V9S       0.244500
     35 C8          -4.1340    -7.2500    19.8940 c          1 V9S       0.533600
     36 O1          -3.8220    -7.4050    18.7170 o          1 V9S      -0.602100
     37 N1          -4.3930    -8.3100    20.7360 ns         1 V9S      -0.497900
     38 C7          -4.3030    -9.7220    20.3690 c3         1 V9S       0.156300
     39 C4          -2.9490   -10.3090    20.7410 ca         1 V9S      -0.098300
     40 C3          -1.8750   -10.2480    19.8310 ca         1 V9S      -0.094000
     41 C1          -0.6220   -10.7870    20.1750 ca         1 V9S      -0.112500
     42 C5          -2.7560   -10.9130    21.9990 ca         1 V9S      -0.094000
     43 C6          -1.5030   -11.4520    22.3420 ca         1 V9S      -0.112500
     44 C2          -0.4360   -11.3900    21.4300 ca         1 V9S      -0.110000
     45 H1          -5.2100     0.7710    28.5850 ha         1 V9S       0.107000
     46 H2           0.8720     5.5340    18.4690 ha         1 V9S       0.116000
     47 H4          -2.7250     5.3930    20.4400 h1         1 V9S       0.024700
     48 H5          -1.2470     4.4020    20.3000 h1         1 V9S       0.024700
     49 H6           0.1440     6.4480    20.6820 hc         1 V9S       0.070700
     50 H7          -1.3090     7.4230    20.8210 hc         1 V9S       0.070700
     51 H8          -2.7030     7.9440    18.8120 ha         1 V9S       0.116000
     52 H9          -2.7400     8.2330    16.3430 ha         1 V9S       0.105500
     53 H10         -0.9750     7.1770    14.9330 ha         1 V9S       0.103000
     54 H11          0.8290     5.8270    16.0010 ha         1 V9S       0.105500
     55 H12         -3.0960     3.1670    21.1960 ha         1 V9S       0.101000
     56 H13         -4.1940     1.4490    22.5720 ha         1 V9S       0.099000
     57 H14         -4.1490     2.4520    27.1410 ha         1 V9S       0.155000
     58 H15         -5.2330    -2.3050    28.5290 hc         1 V9S       0.047200
     59 H16         -6.6170    -1.2390    28.7320 hc         1 V9S       0.047200
     60 H17         -7.7540    -2.2160    26.7730 hc         1 V9S       0.043700
     61 H18         -7.3120    -3.5000    27.8980 hc         1 V9S       0.043700
     62 H19         -6.7910    -4.0740    25.5150 hc         1 V9S       0.047700
     63 H20         -5.3440    -4.1170    26.5220 hc         1 V9S       0.047700
     64 H21         -4.2160    -0.3430    23.8430 ha         1 V9S       0.127000
     65 H22         -5.1770    -4.8720    24.0430 hn         1 V9S       0.500000
     66 H23         -3.7710    -4.6270    18.8480 h4         1 V9S       0.175000
     67 H24         -4.6350    -8.0620    21.6900 hn         1 V9S       0.340500
     68 H25         -4.4780    -9.8380    19.2920 h1         1 V9S       0.051700
     69 H26         -5.0980   -10.2700    20.8920 h1         1 V9S       0.051700
     70 H27         -2.0100    -9.7800    18.8580 ha         1 V9S       0.112000
     71 H28          0.2030   -10.7360    19.4680 ha         1 V9S       0.109000
     72 H29         -3.5760   -10.9640    22.7120 ha         1 V9S       0.112000
     73 H30         -1.3600   -11.9180    23.3150 ha         1 V9S       0.109000
     74 H31          0.5330   -11.8070    21.6960 ha         1 V9S       0.108000
     75 C27         -1.2850     5.2420    25.0830 c          1 V9S       0.633500
@<TRIPOS>BOND
     1     1    31 1   
     2     1    33 1   
     3     2    23 ar  
     4     2    27 ar  
     5     2    28 1   
     6     3    22 ar  
     7     3    23 ar  
     8     3    45 1   
     9     4    12 ar  
    10     4    16 ar  
    11     4    46 1   
    12     5    75 1   
    13     6    75 1   
    14     7     8 ar  
    15     7    19 ar  
    16     7    75 1   
    17     8     9 1   
    18     8    17 ar  
    19     9    10 1   
    20    10    11 1   
    21    10    47 1   
    22    10    48 1   
    23    11    12 1   
    24    11    49 1   
    25    11    50 1   
    26    12    13 ar  
    27    13    14 ar  
    28    13    51 1   
    29    14    15 ar  
    30    14    52 1   
    31    15    16 ar  
    32    15    53 1   
    33    16    54 1   
    34    17    18 ar  
    35    17    55 1   
    36    18    20 ar  
    37    18    56 1   
    38    19    20 ar  
    39    20    21 1   
    40    21    22 ar  
    41    21    27 ar  
    42    22    57 1   
    43    23    24 1   
    44    24    25 1   
    45    24    58 1   
    46    24    59 1   
    47    25    26 1   
    48    25    60 1   
    49    25    61 1   
    50    26    28 1   
    51    26    62 1   
    52    26    63 1   
    53    27    64 1   
    54    28    29 2   
    55    29    30 1   
    56    30    31 1   
    57    30    65 1   
    58    31    32 2   
    59    32    34 1   
    60    33    34 2   
    61    33    66 1   
    62    34    35 1   
    63    35    36 2   
    64    35    37 1   
    65    37    38 1   
    66    37    67 1   
    67    38    39 1   
    68    38    68 1   
    69    38    69 1   
    70    39    40 ar  
    71    39    42 ar  
    72    40    41 ar  
    73    40    70 1   
    74    41    44 ar  
    75    41    71 1   
    76    42    43 ar  
    77    42    72 1   
    78    43    44 ar  
    79    43    73 1   
    80    44    74 1   
@<TRIPOS>SUBSTRUCTURE
     1 V9S         1 TEMP              0 ****  ****    0 ROOT
