@<TRIPOS>MOLECULE
V9S
   75    80     1     0     0
SMALL
bcc


@<TRIPOS>ATOM
      1 S1          -4.1250    -2.9870    21.8430 ss         1 V9S      -0.112300
      2 C17         -5.2370    -1.0070    26.0820 ca         1 V9S      -0.144900
      3 C21         -5.3630     0.7650    27.6940 ca         1 V9S      -0.148000
      4 C31          0.3570     5.0370    18.3180 ca         1 V9S      -0.124500
      5 O2          -2.8650     6.1970    25.4170 o          1 V9S      -0.802300
      6 O3          -0.8170     5.3790    25.0250 o          1 V9S      -0.802300
      7 C26         -2.6720     4.1490    24.2890 ca         1 V9S       0.372800
      8 C25         -2.5800     3.9660    22.9000 ca         1 V9S       0.045800
      9 O4          -1.9400     4.9240    22.2060 os         1 V9S      -0.278900
     10 C28         -1.7730     4.7520    20.8100 c3         1 V9S       0.142400
     11 C29         -0.9420     5.9130    20.2880 c3         1 V9S      -0.040100
     12 C30         -0.7260     5.7640    18.8070 ca         1 V9S      -0.070300
     13 C35         -1.6300     6.3050    17.8960 ca         1 V9S      -0.124500
     14 C34         -1.4580     6.1250    16.5300 ca         1 V9S      -0.132500
     15 C33         -0.3740     5.3980    16.0540 ca         1 V9S      -0.139000
     16 C32          0.5340     4.8550    16.9530 ca         1 V9S      -0.132500
     17 C24         -3.1760     2.8450    22.3460 ca         1 V9S      -0.216000
     18 C23         -3.8020     1.9320    23.1850 ca         1 V9S      -0.226300
     19 N5          -3.2780     3.2720    25.0670 nb         1 V9S      -0.640000
     20 C22         -3.8230     2.1650    24.5530 cp         1 V9S       0.399800
     21 C19         -4.4420     1.2230    25.5110 cp         1 V9S      -0.105500
     22 C20         -4.7990     1.6490    26.7950 ca         1 V9S      -0.068000
     23 C16         -5.5870    -0.5700    27.3640 ca         1 V9S      -0.072300
     24 C15         -6.1760    -1.5170    28.3690 c6         1 V9S      -0.030100
     25 C14         -6.9520    -2.6300    27.6870 c6         1 V9S      -0.064400
     26 C13         -6.0740    -3.3600    26.6800 c6         1 V9S      -0.148700
     27 C18         -4.6690    -0.1040    25.1790 ca         1 V9S      -0.093000
     28 C12         -5.4320    -2.4200    25.6990 ce         1 V9S       0.428900
     29 N4          -5.0110    -2.7580    24.5410 n2         1 V9S      -0.429400
     30 N3          -5.1040    -4.0230    24.1140 nu         1 V9S      -0.561000
     31 C10         -4.6670    -4.2890    22.8620 cc         1 V9S       0.710300
     32 N2          -4.6230    -5.4660    22.3300 nd         1 V9S      -0.752000
     33 C11         -3.8180    -4.1480    20.6080 cc         1 V9S      -0.178400
     34 C9          -4.1390    -5.3880    21.0490 cd         1 V9S       0.309800
     35 C8          -3.9750    -6.6110    20.2250 c          1 V9S       0.600600
     36 O1          -3.5420    -6.5610    19.0830 o          1 V9S      -0.602100
     37 N1          -4.3360    -7.7510    20.8330 ns         1 V9S      -0.564900
     38 C7          -4.1870    -9.0360    20.1950 c3         1 V9S       0.156300
     39 C4          -2.7490    -9.4800    20.0570 ca         1 V9S      -0.098300
     40 C3          -2.3040   -10.0600    18.8740 ca         1 V9S      -0.112000
     41 C1          -0.9910   -10.4990    18.7490 ca         1 V9S      -0.130500
     42 C5          -1.8560    -9.3450    21.1170 ca         1 V9S      -0.112000
     43 C6          -0.5430    -9.7780    20.9940 ca         1 V9S      -0.130500
     44 C2          -0.1060   -10.3570    19.8080 ca         1 V9S      -0.128000
     45 H1          -5.6410     1.1150    28.6810 ha         1 V9S       0.125000
     46 H2           1.0710     4.6110    19.0140 ha         1 V9S       0.134000
     47 H4          -2.7460     4.7290    20.3040 h1         1 V9S       0.024700
     48 H5          -1.2660     3.8040    20.5980 h1         1 V9S       0.024700
     49 H6           0.0170     5.9340    20.8090 hc         1 V9S       0.070700
     50 H7          -1.4530     6.8540    20.5040 hc         1 V9S       0.070700
     51 H8          -2.4780     6.8750    18.2590 ha         1 V9S       0.134000
     52 H9          -2.1690     6.5560    15.8360 ha         1 V9S       0.123500
     53 H10         -0.2370     5.2580    14.9890 ha         1 V9S       0.121000
     54 H11          1.3840     4.2900    16.5920 ha         1 V9S       0.123500
     55 H12         -3.1710     2.6600    21.2800 ha         1 V9S       0.119000
     56 H13         -4.2780     1.0630    22.7520 ha         1 V9S       0.117000
     57 H14         -4.6380     2.6790    27.0840 ha         1 V9S       0.173000
     58 H15         -5.3720    -1.9530    28.9730 hc         1 V9S       0.047200
     59 H16         -6.8160    -0.9700    29.0630 hc         1 V9S       0.047200
     60 H17         -7.8240    -2.2120    27.1770 hc         1 V9S       0.043700
     61 H18         -7.3270    -3.3410    28.4240 hc         1 V9S       0.043700
     62 H19         -6.6770    -4.1060    26.1540 hc         1 V9S       0.047700
     63 H20         -5.2880    -3.9140    27.2070 hc         1 V9S       0.047700
     64 H21         -4.3800    -0.4760    24.2050 ha         1 V9S       0.145000
     65 H22         -5.3840    -4.7980    24.7040 hn         1 V9S       0.444800
     66 H23         -3.4210    -3.8580    19.6480 h4         1 V9S       0.193000
     67 H24         -4.6650    -7.7050    21.7850 hn         1 V9S       0.340500
     68 H25         -4.6630    -9.0210    19.2120 h1         1 V9S       0.051700
     69 H26         -4.7400    -9.7570    20.7990 h1         1 V9S       0.051700
     70 H27         -2.9870   -10.1640    18.0400 ha         1 V9S       0.130000
     71 H28         -0.6590   -10.9440    17.8200 ha         1 V9S       0.127000
     72 H29         -2.1830    -8.8910    22.0450 ha         1 V9S       0.130000
     73 H30          0.1400    -9.6630    21.8250 ha         1 V9S       0.127000
     74 H31          0.9190   -10.6910    19.7120 ha         1 V9S       0.126000
     75 C27         -2.0580     5.3660    24.9710 c          1 V9S       0.844100
@<TRIPOS>BOND
     1     1    31 1   
     2     1    33 1   
     3     2    23 ar  
     4     2    27 ar  
     5     2    28 1   
     6     3    22 ar  
     7     3    23 ar  
     8     3    45 1   
     9     4    12 ar  
    10     4    16 ar  
    11     4    46 1   
    12     5    75 1   
    13     6    75 1   
    14     7     8 ar  
    15     7    19 ar  
    16     7    75 1   
    17     8     9 1   
    18     8    17 ar  
    19     9    10 1   
    20    10    11 1   
    21    10    47 1   
    22    10    48 1   
    23    11    12 1   
    24    11    49 1   
    25    11    50 1   
    26    12    13 ar  
    27    13    14 ar  
    28    13    51 1   
    29    14    15 ar  
    30    14    52 1   
    31    15    16 ar  
    32    15    53 1   
    33    16    54 1   
    34    17    18 ar  
    35    17    55 1   
    36    18    20 ar  
    37    18    56 1   
    38    19    20 ar  
    39    20    21 1   
    40    21    22 ar  
    41    21    27 ar  
    42    22    57 1   
    43    23    24 1   
    44    24    25 1   
    45    24    58 1   
    46    24    59 1   
    47    25    26 1   
    48    25    60 1   
    49    25    61 1   
    50    26    28 1   
    51    26    62 1   
    52    26    63 1   
    53    27    64 1   
    54    28    29 2   
    55    29    30 1   
    56    30    31 1   
    57    30    65 1   
    58    31    32 2   
    59    32    34 1   
    60    33    34 2   
    61    33    66 1   
    62    34    35 1   
    63    35    36 2   
    64    35    37 1   
    65    37    38 1   
    66    37    67 1   
    67    38    39 1   
    68    38    68 1   
    69    38    69 1   
    70    39    40 ar  
    71    39    42 ar  
    72    40    41 ar  
    73    40    70 1   
    74    41    44 ar  
    75    41    71 1   
    76    42    43 ar  
    77    42    72 1   
    78    43    44 ar  
    79    43    73 1   
    80    44    74 1   
@<TRIPOS>SUBSTRUCTURE
     1 V9S         1 TEMP              0 ****  ****    0 ROOT
