@<TRIPOS>MOLECULE
V9T
   75    80     1     0     0
SMALL
abcg2


@<TRIPOS>ATOM
      1 C10        -11.9420    18.8480   -12.2230 c6         1 V9T       0.181800
      2 C15        -14.0260    23.1570   -14.0560 ca         1 V9T      -0.249600
      3 C17        -15.6570    24.8290   -14.6970 ca         1 V9T      -0.154000
      4 C21        -20.1080    23.8680   -15.8800 cy         1 V9T       0.201500
      5 C22        -20.6750    22.9140   -16.8800 cx         1 V9T      -0.108700
      6 C24        -20.5810    23.2350   -18.3430 cx         1 V9T      -0.129900
      7 C26        -21.7130    24.7240   -13.9320 cy         1 V9T      -0.070400
      8 C28        -21.2980    22.6170   -13.8660 cy         1 V9T      -0.070400
      9 C01         -7.8290    13.6830   -12.3540 c3         1 V9T       0.222100
     10 C03         -9.3980    14.9510   -10.9460 ca         1 V9T       0.405900
     11 C04         -9.7520    15.8240   -11.9770 ca         1 V9T      -0.361000
     12 C05        -10.6840    16.8250   -11.6830 ca         1 V9T       0.413900
     13 C07        -10.4550    17.9360   -13.8700 c6         1 V9T       0.209800
     14 C08         -9.4920    19.1100   -13.7360 c6         1 V9T      -0.104400
     15 C09        -10.2280    20.3540   -13.2380 c6         1 V9T      -0.061400
     16 C11        -11.0500    20.0730   -11.9820 c6         1 V9T       0.145000
     17 C12        -11.8920    21.2880   -11.5590 c3         1 V9T       0.068000
     18 C14        -12.8180    22.8490   -13.2320 c          1 V9T       0.609700
     19 C16        -14.5090    24.4640   -14.0180 ca         1 V9T      -0.030000
     20 C18        -16.3450    23.8850   -15.4540 ca         1 V9T      -0.025300
     21 C19        -17.6450    24.2300   -16.1270 c3         1 V9T       0.208100
     22 C23        -21.9030    23.3090   -17.6440 cx         1 V9T      -0.129900
     23 C25        -20.5480    23.8490   -14.4020 cy         1 V9T      -0.093000
     24 C27        -22.5880    23.4560   -13.8530 cy         1 V9T      -0.093400
     25 C29        -19.0700    24.0800   -14.0860 cy         1 V9T       0.159800
     26 C30        -15.8460    22.5930   -15.5380 ca         1 V9T      -0.131000
     27 C31        -14.6900    22.2190   -14.8590 ca         1 V9T       0.167100
     28 C36        -10.7880    16.0450    -9.5520 ca         1 V9T       0.196900
     29 N06        -11.1460    17.7010   -12.6140 nh         1 V9T      -0.756300
     30 N13        -12.8970    21.7030   -12.5140 ns         1 V9T      -0.516900
     31 N20        -18.7390    23.5980   -15.4290 nq         1 V9T      -0.707600
     32 N35        -11.1990    16.9270   -10.4420 nb         1 V9T      -0.318000
     33 N37         -9.9260    15.0640    -9.7100 nb         1 V9T      -0.291000
     34 O32        -14.2770    20.9500   -15.0430 oh         1 V9T      -0.540100
     35 O33        -11.8550    23.5970   -13.2020 o          1 V9T      -0.579100
     36 O34        -10.1320    19.8120   -10.9380 oh         1 V9T      -0.655000
     37 H1         -12.6510    19.0530   -13.0300 h1         1 V9T       0.068200
     38 H2         -12.5280    18.6130   -11.3350 h1         1 V9T       0.068200
     39 H3         -16.0260    25.8450   -14.6300 ha         1 V9T       0.118000
     40 H4         -20.2130    24.8990   -16.2650 h1         1 V9T       0.033700
     41 H5         -20.5870    21.8660   -16.6130 hc         1 V9T       0.090700
     42 H6         -20.4100    22.4210   -19.0350 hc         1 V9T       0.069950
     43 H7         -20.1040    24.1660   -18.6260 hc         1 V9T       0.069950
     44 H8         -21.5240    25.1520   -12.9450 hc         1 V9T       0.052700
     45 H9         -22.0330    25.5250   -14.6010 hc         1 V9T       0.052700
     46 H10        -21.2870    21.7020   -14.4590 hc         1 V9T       0.052700
     47 H11        -20.9650    22.3740   -12.8550 hc         1 V9T       0.052700
     48 H12         -7.1860    12.8200   -12.2110 h1         1 V9T       0.038033
     49 H13         -8.5230    13.4560   -13.1670 h1         1 V9T       0.038033
     50 H14         -7.2050    14.5230   -12.6690 h1         1 V9T       0.038033
     51 H15         -9.3140    15.7130   -12.9560 ha         1 V9T       0.127000
     52 H16        -11.2120    18.1610   -14.6270 h1         1 V9T       0.053700
     53 H17         -9.9440    17.0400   -14.2110 h1         1 V9T       0.053700
     54 H18         -8.6830    18.8410   -13.0530 hc         1 V9T       0.056700
     55 H19         -9.0330    19.3150   -14.7050 hc         1 V9T       0.056700
     56 H20         -9.5210    21.1650   -13.0430 hc         1 V9T       0.055700
     57 H21        -10.8960    20.7070   -14.0290 hc         1 V9T       0.055700
     58 H22        -11.2210    22.1250   -11.3640 h1         1 V9T       0.065200
     59 H23        -12.3980    21.0490   -10.6190 h1         1 V9T       0.065200
     60 H24        -13.9850    25.1980   -13.4200 ha         1 V9T       0.129000
     61 H25        -17.6410    23.8700   -17.1600 h1         1 V9T       0.042700
     62 H26        -17.7620    25.3250   -16.1670 h1         1 V9T       0.042700
     63 H27        -22.3210    24.2890   -17.4500 hc         1 V9T       0.069950
     64 H28        -22.6410    22.5470   -17.8570 hc         1 V9T       0.069950
     65 H29        -23.2490    23.3520   -12.9930 hc         1 V9T       0.050200
     66 H30        -23.1750    23.3140   -14.7610 hc         1 V9T       0.050200
     67 H31        -18.6300    23.5160   -13.2590 h1         1 V9T       0.049700
     68 H32        -18.8480    25.1480   -13.9410 h1         1 V9T       0.049700
     69 H33        -16.3570    21.8540   -16.1440 ha         1 V9T       0.140000
     70 H34        -11.2150    16.1460    -8.5580 h5         1 V9T       0.038100
     71 H35         -8.3120    13.3870   -10.3150 hn         1 V9T       0.508000
     72 H36        -13.8070    21.2810   -12.4100 hn         1 V9T       0.314500
     73 H38        -13.4150    20.7860   -14.6420 ho         1 V9T       0.474000
     74 H39        -10.5880    19.3330   -10.2360 ho         1 V9T       0.460000
     75 N02         -8.5180    13.9520   -11.1210 nu         1 V9T      -0.936100
@<TRIPOS>BOND
     1     1    16 1   
     2     1    29 1   
     3     1    37 1   
     4     1    38 1   
     5     2    18 1   
     6     2    19 ar  
     7     2    27 ar  
     8     3    19 ar  
     9     3    20 ar  
    10     3    39 1   
    11     4     5 1   
    12     4    23 1   
    13     4    31 1   
    14     4    40 1   
    15     5     6 1   
    16     5    22 1   
    17     5    41 1   
    18     6    22 1   
    19     6    42 1   
    20     6    43 1   
    21     7    23 1   
    22     7    24 1   
    23     7    44 1   
    24     7    45 1   
    25     8    23 1   
    26     8    24 1   
    27     8    46 1   
    28     8    47 1   
    29     9    48 1   
    30     9    49 1   
    31     9    50 1   
    32     9    75 1   
    33    10    11 ar  
    34    10    33 ar  
    35    10    75 1   
    36    11    12 ar  
    37    11    51 1   
    38    12    29 1   
    39    12    32 ar  
    40    13    14 1   
    41    13    29 1   
    42    13    52 1   
    43    13    53 1   
    44    14    15 1   
    45    14    54 1   
    46    14    55 1   
    47    15    16 1   
    48    15    56 1   
    49    15    57 1   
    50    16    17 1   
    51    16    36 1   
    52    17    30 1   
    53    17    58 1   
    54    17    59 1   
    55    18    30 1   
    56    18    35 2   
    57    19    60 1   
    58    20    21 1   
    59    20    26 ar  
    60    21    31 1   
    61    21    61 1   
    62    21    62 1   
    63    22    63 1   
    64    22    64 1   
    65    23    25 1   
    66    24    65 1   
    67    24    66 1   
    68    25    31 1   
    69    25    67 1   
    70    25    68 1   
    71    26    27 ar  
    72    26    69 1   
    73    27    34 1   
    74    28    32 ar  
    75    28    33 ar  
    76    28    70 1   
    77    30    72 1   
    78    34    73 1   
    79    36    74 1   
    80    71    75 1   
@<TRIPOS>SUBSTRUCTURE
     1 V9T         1 TEMP              0 ****  ****    0 ROOT
