@<TRIPOS>MOLECULE
V9T
   75    80     1     0     0
SMALL
No Charge or Current Charge


@<TRIPOS>ATOM
      1 C10        -11.2310    19.2640   -11.5110 c6         1 V9T       0.181800
      2 C15        -14.1680    22.8980   -13.4040 ca         1 V9T      -0.249600
      3 C17        -15.3380    24.1100   -15.1940 ca         1 V9T      -0.154000
      4 C21        -20.0490    23.5190   -16.4150 cy         1 V9T       0.201500
      5 C22        -20.8130    22.2340   -16.7700 cx         1 V9T      -0.108700
      6 C24        -20.9970    21.7280   -18.1820 cx         1 V9T      -0.129900
      7 C26        -21.4670    25.4210   -15.1160 cy         1 V9T      -0.070400
      8 C28        -21.2270    23.4140   -13.9390 cy         1 V9T      -0.070400
      9 C01         -9.2610    13.6480   -14.3760 c3         1 V9T       0.222100
     10 C03         -9.9470    14.6530   -12.1210 ca         1 V9T       0.405900
     11 C04         -9.8620    15.9810   -12.5410 ca         1 V9T      -0.361000
     12 C05        -10.1630    16.9750   -11.6000 ca         1 V9T       0.413900
     13 C07         -9.3380    18.8530   -13.0810 c6         1 V9T       0.209800
     14 C08         -8.7940    20.2820   -12.8220 c6         1 V9T      -0.104400
     15 C09         -9.9030    21.2520   -12.3260 c6         1 V9T      -0.061400
     16 C11        -10.6710    20.6630   -11.1050 c6         1 V9T       0.145000
     17 C12        -11.8060    21.6120   -10.5970 c3         1 V9T       0.068000
     18 C14        -12.9880    22.8810   -12.4460 c          1 V9T       0.609700
     19 C16        -14.2820    24.0090   -14.2760 ca         1 V9T      -0.030000
     20 C18        -16.3120    23.1030   -15.2710 ca         1 V9T      -0.025300
     21 C19        -17.4650    23.2070   -16.2650 c3         1 V9T       0.208100
     22 C23        -22.1910    22.2040   -17.3880 cx         1 V9T      -0.129900
     23 C25        -20.5190    24.2040   -15.0720 cy         1 V9T      -0.093000
     24 C27        -22.4340    24.3960   -14.3430 cy         1 V9T      -0.093400
     25 C29        -19.0760    24.5880   -14.7080 cy         1 V9T       0.159800
     26 C30        -16.2140    21.9950   -14.4140 ca         1 V9T      -0.131000
     27 C31        -15.1600    21.8820   -13.4880 ca         1 V9T       0.167100
     28 C36        -10.5740    15.3440   -10.0420 ca         1 V9T       0.196900
     29 N06        -10.1070    18.3520   -11.9050 nh         1 V9T      -0.756300
     30 N13        -12.8980    21.8350   -11.5600 ns         1 V9T      -0.516900
     31 N20        -18.7640    23.3950   -15.6160 nq         1 V9T      -0.707600
     32 N35        -10.5230    16.6560   -10.3440 nb         1 V9T      -0.318000
     33 N37        -10.3020    14.3210   -10.8740 nb         1 V9T      -0.291000
     34 O32        -15.1340    20.7710   -12.6950 oh         1 V9T      -0.540100
     35 O33        -12.1410    23.7630   -12.4560 o          1 V9T      -0.579100
     36 O34         -9.7430    20.4620   -10.0320 oh         1 V9T      -0.655000
     37 H1         -11.9350    19.3770   -12.3490 h1         1 V9T       0.068200
     38 H2         -11.8070    18.8560   -10.6680 h1         1 V9T       0.068200
     39 H3         -15.3980    24.9780   -15.8470 ha         1 V9T       0.118000
     40 H4         -20.0050    24.2080   -17.2680 h1         1 V9T       0.033700
     41 H5         -20.6010    21.4630   -16.0340 hc         1 V9T       0.090700
     42 H6         -20.8940    20.6600   -18.3540 hc         1 V9T       0.069950
     43 H7         -20.6490    22.3570   -18.9980 hc         1 V9T       0.069950
     44 H8         -21.1510    26.2870   -14.5230 hc         1 V9T       0.052700
     45 H9         -21.8030    25.7460   -16.1070 hc         1 V9T       0.052700
     46 H10        -21.4090    22.3460   -14.0870 hc         1 V9T       0.052700
     47 H11        -20.8310    23.5810   -12.9320 hc         1 V9T       0.052700
     48 H12         -9.1190    12.6350   -14.7770 h1         1 V9T       0.038033
     49 H13        -10.0250    14.1560   -14.9810 h1         1 V9T       0.038033
     50 H14         -8.3140    14.1960   -14.4770 h1         1 V9T       0.038033
     51 H15         -9.5870    16.2290   -13.5590 ha         1 V9T       0.127000
     52 H16         -9.9820    18.8630   -13.9740 h1         1 V9T       0.053700
     53 H17         -8.4820    18.1970   -13.2970 h1         1 V9T       0.053700
     54 H18         -7.9840    20.2320   -12.0820 hc         1 V9T       0.056700
     55 H19         -8.3400    20.6730   -13.7430 hc         1 V9T       0.056700
     56 H20         -9.4610    22.2230   -12.0660 hc         1 V9T       0.055700
     57 H21        -10.6020    21.4400   -13.1520 hc         1 V9T       0.055700
     58 H22        -11.3640    22.5780   -10.3190 h1         1 V9T       0.065200
     59 H23        -12.2420    21.1790    -9.6870 h1         1 V9T       0.065200
     60 H24        -13.5460    24.8110   -14.2470 ha         1 V9T       0.129000
     61 H25        -17.5010    22.2900   -16.8680 h1         1 V9T       0.042700
     62 H26        -17.2870    24.0470   -16.9500 h1         1 V9T       0.042700
     63 H27        -22.6400    23.1540   -17.6690 hc         1 V9T       0.069950
     64 H28        -22.8920    21.4580   -17.0220 hc         1 V9T       0.069950
     65 H29        -22.9810    24.8260   -13.4970 hc         1 V9T       0.050200
     66 H30        -23.1730    23.9220   -15.0000 hc         1 V9T       0.050200
     67 H31        -18.7950    24.4840   -13.6530 h1         1 V9T       0.049700
     68 H32        -18.7580    25.5600   -15.1050 h1         1 V9T       0.049700
     69 H33        -16.9740    21.2200   -14.4740 ha         1 V9T       0.140000
     70 H34        -10.8650    15.0850    -9.0250 h5         1 V9T       0.038100
     71 H35         -9.7750    12.6660   -12.5380 hn         1 V9T       0.508000
     72 H36        -13.6530    21.1590   -11.6140 hn         1 V9T       0.314500
     73 H38        -15.9100    20.2110   -12.9140 ho         1 V9T       0.474000
     74 H39         -9.3550    19.5790   -10.2400 ho         1 V9T       0.460000
     75 N02         -9.6760    13.5900   -12.9640 nu         1 V9T      -0.936100
@<TRIPOS>BOND
     1     1    16 1   
     2     1    29 1   
     3     1    37 1   
     4     1    38 1   
     5     2    18 1   
     6     2    19 ar  
     7     2    27 ar  
     8     3    19 ar  
     9     3    20 ar  
    10     3    39 1   
    11     4     5 1   
    12     4    23 1   
    13     4    31 1   
    14     4    40 1   
    15     5     6 1   
    16     5    22 1   
    17     5    41 1   
    18     6    22 1   
    19     6    42 1   
    20     6    43 1   
    21     7    23 1   
    22     7    24 1   
    23     7    44 1   
    24     7    45 1   
    25     8    23 1   
    26     8    24 1   
    27     8    46 1   
    28     8    47 1   
    29     9    48 1   
    30     9    49 1   
    31     9    50 1   
    32     9    75 1   
    33    10    11 ar  
    34    10    33 ar  
    35    10    75 1   
    36    11    12 ar  
    37    11    51 1   
    38    12    29 1   
    39    12    32 ar  
    40    13    14 1   
    41    13    29 1   
    42    13    52 1   
    43    13    53 1   
    44    14    15 1   
    45    14    54 1   
    46    14    55 1   
    47    15    16 1   
    48    15    56 1   
    49    15    57 1   
    50    16    17 1   
    51    16    36 1   
    52    17    30 1   
    53    17    58 1   
    54    17    59 1   
    55    18    30 1   
    56    18    35 2   
    57    19    60 1   
    58    20    21 1   
    59    20    26 ar  
    60    21    31 1   
    61    21    61 1   
    62    21    62 1   
    63    22    63 1   
    64    22    64 1   
    65    23    25 1   
    66    24    65 1   
    67    24    66 1   
    68    25    31 1   
    69    25    67 1   
    70    25    68 1   
    71    26    27 ar  
    72    26    69 1   
    73    27    34 1   
    74    28    32 ar  
    75    28    33 ar  
    76    28    70 1   
    77    30    72 1   
    78    34    73 1   
    79    36    74 1   
    80    71    75 1   
@<TRIPOS>SUBSTRUCTURE
     1 V9T         1 TEMP              0 ****  ****    0 ROOT
