@<TRIPOS>MOLECULE
V9U
   17    18     1     0     0
SMALL
abcg2


@<TRIPOS>ATOM
      1 C5         -13.3960    27.7170     0.3580 ca         1 V9U      -0.210900
      2 C6         -14.2990    28.6540     0.8470 ca         1 V9U      -0.158600
      3 C2         -15.4450    26.9460     2.0010 ca         1 V9U       0.129000
      4 C4         -13.5010    26.3780     0.6840 ca         1 V9U      -0.060000
      5 C7         -13.8700    29.9870     0.2860 c          1 V9U       0.710100
      6 C1         -15.3400    28.3000     1.6750 ca         1 V9U      -0.037000
      7 C10        -12.4540    28.5030    -0.4810 cc         1 V9U       0.738800
      8 C3         -14.5490    25.9940     1.5230 ca         1 V9U      -0.098000
      9 N11        -11.4370    27.9720    -1.1290 nv         1 V9U      -1.011200
     10 N9         -12.7440    29.7960    -0.5060 nd         1 V9U      -0.740100
     11 O8         -14.4160    31.0570     0.4890 o          1 V9U      -0.496100
     12 CL12       -16.7460    26.4310     3.0450 cl         1 V9U      -0.191000
     13 H4         -12.8060    25.6350     0.3140 ha         1 V9U       0.120000
     14 H1         -16.0450    29.0260     2.0580 ha         1 V9U       0.154000
     15 H3         -14.6700    24.9570     1.8040 ha         1 V9U       0.135000
     16 H11B       -10.8280    28.5550    -1.6840 hn         1 V9U       0.508500
     17 H11A       -11.2450    26.9840    -1.0900 hn         1 V9U       0.508500
@<TRIPOS>BOND
     1     1     2 ar  
     2     1     4 ar  
     3     1     7 1   
     4     2     5 1   
     5     2     6 ar  
     6     3     6 ar  
     7     3     8 ar  
     8     3    12 1   
     9     4     8 ar  
    10     4    13 1   
    11     5    10 1   
    12     5    11 2   
    13     6    14 1   
    14     7     9 1   
    15     7    10 2   
    16     8    15 1   
    17     9    16 1   
    18     9    17 1   
@<TRIPOS>SUBSTRUCTURE
     1 V9U         1 TEMP              0 ****  ****    0 ROOT
