@<TRIPOS>MOLECULE
V9U
   17    18     1     0     0
SMALL
No Charge or Current Charge


@<TRIPOS>ATOM
      1 C5         -13.3570    27.7360     0.3950 ca         1 V9U      -0.210900
      2 C6         -14.2760    28.6610     0.8440 ca         1 V9U      -0.158600
      3 C2         -15.4870    26.9370     2.0010 ca         1 V9U       0.129000
      4 C4         -13.4570    26.3760     0.7290 ca         1 V9U      -0.060000
      5 C7         -13.8440    29.9780     0.2980 c          1 V9U       0.710100
      6 C1         -15.3620    28.2990     1.6530 ca         1 V9U      -0.037000
      7 C10        -12.4000    28.4780    -0.3970 cc         1 V9U       0.738800
      8 C3         -14.5430    25.9830     1.5440 ca         1 V9U      -0.098000
      9 N11        -11.3490    27.9860    -1.0440 nv         1 V9U      -1.011200
     10 N9         -12.6760    29.7510    -0.4570 nd         1 V9U      -0.740100
     11 O8         -14.3780    31.0640     0.4540 o          1 V9U      -0.496100
     12 Cl12       -16.8270    26.4170     3.0150 cl         1 V9U      -0.191000
     13 H4         -12.7290    25.6480     0.3790 ha         1 V9U       0.120000
     14 H1         -16.0810    29.0370     2.0010 ha         1 V9U       0.154000
     15 H3         -14.6560    24.9390     1.8250 ha         1 V9U       0.135000
     16 H11B       -10.9770    28.6000    -1.7570 hn         1 V9U       0.508500
     17 H11A       -11.3930    27.0040    -1.2890 hn         1 V9U       0.508500
@<TRIPOS>BOND
     1     1     2 ar  
     2     1     4 ar  
     3     1     7 1   
     4     2     5 1   
     5     2     6 ar  
     6     3     6 ar  
     7     3     8 ar  
     8     3    12 1   
     9     4     8 ar  
    10     4    13 1   
    11     5    10 1   
    12     5    11 2   
    13     6    14 1   
    14     7     9 1   
    15     7    10 2   
    16     8    15 1   
    17     9    16 1   
    18     9    17 1   
@<TRIPOS>SUBSTRUCTURE
     1 V9U         1 TEMP              0 ****  ****    0 ROOT
