@<TRIPOS>MOLECULE
V9V
   49    51     1     0     0
SMALL
abcg2


@<TRIPOS>ATOM
      1 C8         -25.1450    13.5210    26.3610 cc         1 V9V      -0.280600
      2 C6         -26.6830    12.4960    27.7590 cd         1 V9V      -0.197300
      3 N1         -23.9860    11.7380    25.1650 nd         1 V9V      -0.678100
      4 C2         -23.2890    12.6620    24.5520 cc         1 V9V       0.717800
      5 N3         -23.4650    13.9930    24.7910 ns         1 V9V      -0.448400
      6 C4         -24.3840    14.5320    25.6890 c          1 V9V       0.614600
      7 C7         -26.1710    13.6760    27.3400 cc         1 V9V      -0.066000
      8 C13        -25.5910    10.0320    34.0550 cc         1 V9V      -0.220600
      9 C14        -24.3710    10.2640    33.4890 cd         1 V9V      -0.122000
     10 C15        -24.4500    11.0200    32.2920 cd         1 V9V      -0.144000
     11 C16        -25.7260    11.3710    31.9570 cc         1 V9V      -0.251300
     12 C20        -27.5470     8.0200    36.5850 c3         1 V9V      -0.047300
     13 C21        -27.8480     8.8710    37.8280 c3         1 V9V      -0.043400
     14 C22        -28.1410     8.0740    39.0890 c3         1 V9V      -0.194400
     15 C23        -28.2960     8.9060    40.3770 c          1 V9V       0.714000
     16 C26        -28.7960     7.2410    36.0990 c          1 V9V       0.718000
     17 C29        -27.7550    12.2480    28.7660 c3         1 V9V      -0.009100
     18 C30        -27.2900    11.4450    29.9810 c3         1 V9V      -0.078400
     19 C31        -26.1980    12.1570    30.7790 c3         1 V9V       0.005900
     20 C9         -24.8840    12.2000    26.0480 cd         1 V9V       0.112400
     21 N11        -22.3420    12.3080    23.6740 nv         1 V9V      -1.055200
     22 N19        -27.0990     8.8580    35.4910 ns         1 V9V      -0.448900
     23 O10        -24.4750    15.7400    25.8340 o          1 V9V      -0.549000
     24 O18        -24.8990     8.9530    36.0250 o          1 V9V      -0.639100
     25 O24        -28.8490     8.3250    41.3350 o          1 V9V      -0.767500
     26 O25        -27.8450    10.0700    40.3780 o          1 V9V      -0.767500
     27 O27        -29.4380     7.7630    35.1630 o          1 V9V      -0.738500
     28 O28        -29.0590     6.1820    36.6940 o          1 V9V      -0.738500
     29 S12        -26.8420    10.7670    33.1210 ss         1 V9V       0.235000
     30 S5         -25.9050    11.1470    26.9620 ss         1 V9V       0.237000
     31 H2         -26.5130    14.6310    27.7140 ha         1 V9V       0.145000
     32 H3         -23.4470     9.8910    33.9060 ha         1 V9V       0.143000
     33 H4         -23.5930    11.2960    31.6940 ha         1 V9V       0.111000
     34 H5         -26.7560     7.3050    36.8300 h1         1 V9V       0.052700
     35 H6         -26.9870     9.5180    38.0110 hc         1 V9V       0.029700
     36 H7         -28.6840     9.5410    37.6000 hc         1 V9V       0.029700
     37 H8         -29.0340     7.4610    38.9580 hc         1 V9V       0.031700
     38 H9         -27.3260     7.3570    39.2550 hc         1 V9V       0.031700
     39 H10        -28.1390    13.2170    29.0930 hc         1 V9V       0.051200
     40 H11        -28.5930    11.7240    28.2990 hc         1 V9V       0.051200
     41 H12        -28.1600    11.2670    30.6190 hc         1 V9V       0.056700
     42 H13        -26.9330    10.4590    29.6690 hc         1 V9V       0.056700
     43 H14        -26.5710    13.1340    31.1030 hc         1 V9V       0.042200
     44 H15        -25.3330    12.3530    30.1420 hc         1 V9V       0.042200
     45 H16        -22.2960    11.3400    23.4020 hn         1 V9V       0.498000
     46 H17        -21.9270    12.9740    23.0450 hn         1 V9V       0.498000
     47 H18        -27.8200     9.0070    34.7960 hn         1 V9V       0.333500
     48 H1         -22.8880    14.6630    24.2960 hn         1 V9V       0.315500
     49 C17        -25.8350     9.2370    35.2830 c          1 V9V       0.613700
@<TRIPOS>BOND
     1     1     6 1   
     2     1     7 1   
     3     1    20 2   
     4     2     7 2   
     5     2    17 1   
     6     2    30 1   
     7     3     4 2   
     8     3    20 1   
     9     4     5 1   
    10     4    21 1   
    11     5     6 1   
    12     5    48 1   
    13     6    23 2   
    14     7    31 1   
    15     8     9 2   
    16     8    29 1   
    17     8    49 1   
    18     9    10 1   
    19     9    32 1   
    20    10    11 2   
    21    10    33 1   
    22    11    19 1   
    23    11    29 1   
    24    12    13 1   
    25    12    16 1   
    26    12    22 1   
    27    12    34 1   
    28    13    14 1   
    29    13    35 1   
    30    13    36 1   
    31    14    15 1   
    32    14    37 1   
    33    14    38 1   
    34    15    25 1   
    35    15    26 1   
    36    16    27 1   
    37    16    28 1   
    38    17    18 1   
    39    17    39 1   
    40    17    40 1   
    41    18    19 1   
    42    18    41 1   
    43    18    42 1   
    44    19    43 1   
    45    19    44 1   
    46    20    30 1   
    47    21    45 1   
    48    21    46 1   
    49    22    47 1   
    50    22    49 1   
    51    24    49 2   
@<TRIPOS>SUBSTRUCTURE
     1 V9V         1 TEMP              0 ****  ****    0 ROOT
