@<TRIPOS>MOLECULE
V9V
   49    51     1     0     0
SMALL
No Charge or Current Charge


@<TRIPOS>ATOM
      1 C8         -25.0730    13.5300    26.4360 cc         1 V9V      -0.280600
      2 C6         -26.5430    11.9410    27.3340 cd         1 V9V      -0.197300
      3 N1         -23.4350    12.4350    25.0430 nd         1 V9V      -0.678100
      4 C2         -22.9670    13.6470    24.8540 cc         1 V9V       0.717800
      5 N3         -23.4370    14.7970    25.3710 ns         1 V9V      -0.448400
      6 C4         -24.5050    14.8560    26.1920 c          1 V9V       0.614600
      7 C7         -26.2040    13.2720    27.2590 cc         1 V9V      -0.066000
      8 C13        -25.9430     9.3640    33.7970 cc         1 V9V      -0.220600
      9 C14        -24.7460     9.3760    33.1210 cd         1 V9V      -0.122000
     10 C15        -24.8060    10.0750    31.8860 cd         1 V9V      -0.144000
     11 C16        -26.0450    10.5990    31.6100 cc         1 V9V      -0.251300
     12 C20        -27.9290     8.2910    36.8820 c3         1 V9V      -0.047300
     13 C21        -27.5000     9.2020    38.0640 c3         1 V9V      -0.043400
     14 C22        -27.8570     8.6360    39.4610 c3         1 V9V      -0.194400
     15 C23        -27.3270     9.5670    40.5650 c          1 V9V       0.714000
     16 C26        -29.4750     8.0800    36.8190 c          1 V9V       0.718000
     17 C29        -27.6770    11.3260    28.1160 c3         1 V9V      -0.009100
     18 C30        -27.2020    10.5340    29.3540 c3         1 V9V      -0.078400
     19 C31        -26.4600    11.3940    30.4010 c3         1 V9V       0.005900
     20 C9         -24.5510    12.3900    25.8830 cd         1 V9V       0.112400
     21 N11        -21.9140    13.7580    24.0620 nv         1 V9V      -1.055200
     22 N19        -27.4410     8.8230    35.5880 ns         1 V9V      -0.448900
     23 O10        -24.9210    15.9050    26.6580 o          1 V9V      -0.549000
     24 O18        -25.2800     8.1030    35.7110 o          1 V9V      -0.639100
     25 O24        -28.0460    10.4770    40.9490 o          1 V9V      -0.767500
     26 O25        -26.1940     9.3840    40.9830 o          1 V9V      -0.767500
     27 O27        -30.1650     8.9830    36.3640 o          1 V9V      -0.738500
     28 O28        -29.9190     6.9720    37.0860 o          1 V9V      -0.738500
     29 S12        -27.1870    10.2360    32.9060 ss         1 V9V       0.235000
     30 S5         -25.4460    10.9310    26.3600 ss         1 V9V       0.237000
     31 H2         -26.7400    14.0630    27.7770 ha         1 V9V       0.145000
     32 H3         -23.8430     8.8980    33.4910 ha         1 V9V       0.143000
     33 H4         -23.9530    10.1830    31.2230 ha         1 V9V       0.111000
     34 H5         -27.4750     7.3020    37.0280 h1         1 V9V       0.052700
     35 H6         -26.4140     9.3540    38.0180 hc         1 V9V       0.029700
     36 H7         -27.9600    10.1900    37.9440 hc         1 V9V       0.029700
     37 H8         -28.9520     8.5890    39.5020 hc         1 V9V       0.031700
     38 H9         -27.3690     7.6560    39.5230 hc         1 V9V       0.031700
     39 H10        -28.3790    12.1050    28.4370 hc         1 V9V       0.051200
     40 H11        -28.2470    10.6520    27.4650 hc         1 V9V       0.051200
     41 H12        -28.0750    10.0700    29.8290 hc         1 V9V       0.056700
     42 H13        -26.5480     9.7140    29.0330 hc         1 V9V       0.056700
     43 H14        -27.1070    12.2250    30.7100 hc         1 V9V       0.042200
     44 H15        -25.5730    11.8460    29.9390 hc         1 V9V       0.042200
     45 H16        -21.7130    12.9080    23.5510 hn         1 V9V       0.498000
     46 H17        -21.8340    14.6110    23.5230 hn         1 V9V       0.498000
     47 H18        -28.1010     9.3310    35.0120 hn         1 V9V       0.333500
     48 H1         -22.9700    15.6640    25.1680 hn         1 V9V       0.315500
     49 C17        -26.1560     8.7060    35.1040 c          1 V9V       0.613700
@<TRIPOS>BOND
     1     1     6 1   
     2     1     7 1   
     3     1    20 2   
     4     2     7 2   
     5     2    17 1   
     6     2    30 1   
     7     3     4 2   
     8     3    20 1   
     9     4     5 1   
    10     4    21 1   
    11     5     6 1   
    12     5    48 1   
    13     6    23 2   
    14     7    31 1   
    15     8     9 2   
    16     8    29 1   
    17     8    49 1   
    18     9    10 1   
    19     9    32 1   
    20    10    11 2   
    21    10    33 1   
    22    11    19 1   
    23    11    29 1   
    24    12    13 1   
    25    12    16 1   
    26    12    22 1   
    27    12    34 1   
    28    13    14 1   
    29    13    35 1   
    30    13    36 1   
    31    14    15 1   
    32    14    37 1   
    33    14    38 1   
    34    15    25 1   
    35    15    26 1   
    36    16    27 1   
    37    16    28 1   
    38    17    18 1   
    39    17    39 1   
    40    17    40 1   
    41    18    19 1   
    42    18    41 1   
    43    18    42 1   
    44    19    43 1   
    45    19    44 1   
    46    20    30 1   
    47    21    45 1   
    48    21    46 1   
    49    22    47 1   
    50    22    49 1   
    51    24    49 2   
@<TRIPOS>SUBSTRUCTURE
     1 V9V         1 TEMP              0 ****  ****    0 ROOT
