@<TRIPOS>MOLECULE
V9W
   81    86     1     0     0
SMALL
abcg2


@<TRIPOS>ATOM
      1 C10         45.7640   -31.1820    22.9710 ca         1 V9W      -0.122000
      2 C13         44.9600   -31.9520    23.8000 ca         1 V9W      -0.078200
      3 C15         44.0190   -33.4070    25.1630 cc         1 V9W       0.413800
      4 C17         43.5030   -35.9200    25.3490 c6         1 V9W       0.157000
      5 C20         42.7890   -37.4100    22.9630 c6         1 V9W       0.216800
      6 C21         42.1590   -35.7780    24.6230 c6         1 V9W       0.229800
      7 C02         42.4750   -24.8670    23.8850 c6         1 V9W      -0.048000
      8 C03         43.2250   -23.9090    22.9560 c3         1 V9W      -0.083100
      9 C04         43.4230   -25.9310    24.4510 c6         1 V9W      -0.066900
     10 C05         43.8840   -26.9380    23.4090 c6         1 V9W       0.168300
     11 C08         43.8020   -29.7920    22.5280 ca         1 V9W      -0.111300
     12 C09         45.1580   -30.1060    22.3420 ca         1 V9W      -0.087000
     13 C11         43.0190   -30.5690    23.3700 ca         1 V9W      -0.020000
     14 C12         43.6000   -31.6620    24.0050 ca         1 V9W       0.065400
     15 C16         43.8880   -34.5960    26.0490 c3         1 V9W      -0.122700
     16 C18         44.5750   -36.3720    24.3520 c6         1 V9W      -0.110400
     17 C19         44.1550   -37.6320    23.5990 c6         1 V9W      -0.101400
     18 C23         40.9250   -37.8870    24.5040 ca         1 V9W       0.420900
     19 C25         39.1690   -38.2280    25.8980 ca         1 V9W       0.190900
     20 C27         39.8640   -40.0140    24.7190 ca         1 V9W       0.397900
     21 C30         41.9800   -42.2840    24.2760 ca         1 V9W      -0.115300
     22 C31         42.0850   -42.6680    25.6100 ca         1 V9W      -0.097000
     23 C32         43.3290   -42.8500    26.1970 ca         1 V9W      -0.110000
     24 C33         44.4870   -42.6500    25.4550 ca         1 V9W      -0.107000
     25 C34         44.3920   -42.2680    24.1240 ca         1 V9W      -0.110000
     26 C35         43.1440   -42.0870    23.5410 ca         1 V9W      -0.097000
     27 C36         40.8600   -39.2350    24.1330 ca         1 V9W      -0.359000
     28 C39         41.8920   -26.6060    22.1190 c6         1 V9W       0.168300
     29 C40         41.3610   -25.5960    23.1250 c6         1 V9W      -0.066900
     30 N06         42.7540   -27.5820    22.7630 n3         1 V9W      -0.715600
     31 N14         45.1910   -33.0690    24.5590 na         1 V9W      -0.318600
     32 N22         41.8080   -37.0150    23.9550 nh         1 V9W      -0.764300
     33 N24         40.0650   -37.3920    25.4140 nb         1 V9W      -0.276000
     34 N26         38.9980   -39.5030    25.6130 nb         1 V9W      -0.294000
     35 N28         39.7000   -41.3220    24.4250 nu         1 V9W      -0.936100
     36 N38         43.0480   -32.5850    24.8610 nd         1 V9W      -0.568100
     37 O37         43.3060   -36.9020    26.3460 oh         1 V9W      -0.637000
     38 H1          46.8110   -31.4050    22.8180 ha         1 V9W       0.116000
     39 H2          42.8630   -36.5980    22.2320 h1         1 V9W       0.054200
     40 H3          42.4510   -38.2840    22.4130 h1         1 V9W       0.054200
     41 H4          41.3740   -35.4980    25.3210 h1         1 V9W       0.088200
     42 H5          42.2370   -34.9880    23.8730 h1         1 V9W       0.088200
     43 H6          41.3230   -24.7030    25.7220 hc         1 V9W       0.032367
     44 H7          42.6450   -23.5410    25.6000 hc         1 V9W       0.032367
     45 H8          41.1750   -23.3050    24.6550 hc         1 V9W       0.032367
     46 H9          43.6850   -24.4150    22.1070 hc         1 V9W       0.032367
     47 H10         42.5470   -23.1520    22.5560 hc         1 V9W       0.032367
     48 H11         44.0200   -23.3900    23.4970 hc         1 V9W       0.032367
     49 H12         44.2970   -25.4550    24.9040 hc         1 V9W       0.046450
     50 H13         42.9100   -26.4760    25.2510 hc         1 V9W       0.046450
     51 H14         44.5410   -26.4500    22.6670 h1         1 V9W       0.029450
     52 H15         44.4940   -27.7000    23.8980 h1         1 V9W       0.029450
     53 H16         43.8910   -28.2080    21.0820 h1         1 V9W       0.035200
     54 H17         42.3040   -28.9390    21.2730 h1         1 V9W       0.035200
     55 H18         45.7510   -29.4800    21.6850 ha         1 V9W       0.110000
     56 H19         41.9730   -30.3330    23.5250 ha         1 V9W       0.139000
     57 H20         44.8290   -34.7550    26.5830 hc         1 V9W       0.071700
     58 H21         43.1230   -34.3750    26.7950 hc         1 V9W       0.071700
     59 H22         44.7450   -35.5760    23.6220 hc         1 V9W       0.042700
     60 H23         45.5260   -36.5250    24.8730 hc         1 V9W       0.042700
     61 H24         44.1220   -38.4980    24.2650 hc         1 V9W       0.053200
     62 H25         44.8860   -37.8590    22.8220 hc         1 V9W       0.053200
     63 H26         38.4800   -37.8090    26.6280 h5         1 V9W       0.039100
     64 H27         40.1570   -43.0650    23.4620 h1         1 V9W       0.055700
     65 H28         40.7450   -41.6390    22.6460 h1         1 V9W       0.055700
     66 H29         41.1880   -42.8190    26.1990 ha         1 V9W       0.111500
     67 H30         43.3950   -43.1480    27.2350 ha         1 V9W       0.112500
     68 H31         45.4580   -42.7890    25.9140 ha         1 V9W       0.112000
     69 H32         45.2880   -42.1030    23.5400 ha         1 V9W       0.112500
     70 H33         43.0750   -41.7780    22.5030 ha         1 V9W       0.111500
     71 H34         41.5590   -39.6740    23.4420 ha         1 V9W       0.126000
     72 H35         41.0530   -27.1360    21.6610 h1         1 V9W       0.029450
     73 H36         42.4130   -26.0830    21.2980 h1         1 V9W       0.029450
     74 H37         40.7240   -26.1220    23.8440 hc         1 V9W       0.046450
     75 H38         40.7230   -24.8730    22.6090 hc         1 V9W       0.046450
     76 H40         46.0700   -33.5500    24.6690 hn         1 V9W       0.353000
     77 H41         39.0140   -41.8130    24.9740 hn         1 V9W       0.501000
     78 H43         44.1660   -37.1770    26.6830 ho         1 V9W       0.436000
     79 C07         43.1850   -28.6070    21.8300 c3         1 V9W       0.218100
     80 C01         41.8700   -24.0590    25.0300 c3         1 V9W      -0.083100
     81 C29         40.6230   -42.0930    23.6340 c3         1 V9W       0.279100
@<TRIPOS>BOND
     1     1     2 ar  
     2     1    12 ar  
     3     1    38 1   
     4     2    14 ar  
     5     2    31 1   
     6     3    15 1   
     7     3    31 1   
     8     3    36 2   
     9     4     6 1   
    10     4    15 1   
    11     4    16 1   
    12     4    37 1   
    13     5    17 1   
    14     5    32 1   
    15     5    39 1   
    16     5    40 1   
    17     6    32 1   
    18     6    41 1   
    19     6    42 1   
    20     7     8 1   
    21     7     9 1   
    22     7    29 1   
    23     7    80 1   
    24     8    46 1   
    25     8    47 1   
    26     8    48 1   
    27     9    10 1   
    28     9    49 1   
    29     9    50 1   
    30    10    30 1   
    31    10    51 1   
    32    10    52 1   
    33    11    12 ar  
    34    11    13 ar  
    35    11    79 1   
    36    12    55 1   
    37    13    14 ar  
    38    13    56 1   
    39    14    36 1   
    40    15    57 1   
    41    15    58 1   
    42    16    17 1   
    43    16    59 1   
    44    16    60 1   
    45    17    61 1   
    46    17    62 1   
    47    18    27 ar  
    48    18    32 1   
    49    18    33 ar  
    50    19    33 ar  
    51    19    34 ar  
    52    19    63 1   
    53    20    27 ar  
    54    20    34 ar  
    55    20    35 1   
    56    21    22 ar  
    57    21    26 ar  
    58    21    81 1   
    59    22    23 ar  
    60    22    66 1   
    61    23    24 ar  
    62    23    67 1   
    63    24    25 ar  
    64    24    68 1   
    65    25    26 ar  
    66    25    69 1   
    67    26    70 1   
    68    27    71 1   
    69    28    29 1   
    70    28    30 1   
    71    28    72 1   
    72    28    73 1   
    73    29    74 1   
    74    29    75 1   
    75    30    79 1   
    76    31    76 1   
    77    35    77 1   
    78    35    81 1   
    79    37    78 1   
    80    43    80 1   
    81    44    80 1   
    82    45    80 1   
    83    53    79 1   
    84    54    79 1   
    85    64    81 1   
    86    65    81 1   
@<TRIPOS>SUBSTRUCTURE
     1 V9W         1 TEMP              0 ****  ****    0 ROOT
