@<TRIPOS>MOLECULE
V9W
   81    86     1     0     0
SMALL
No Charge or Current Charge


@<TRIPOS>ATOM
      1 C10         45.8250   -31.2210    22.5970 ca         1 V9W      -0.122000
      2 C13         45.0180   -32.0560    23.3760 ca         1 V9W      -0.078200
      3 C15         44.1470   -33.6520    24.6340 cc         1 V9W       0.413800
      4 C17         43.4910   -36.1530    24.6670 c6         1 V9W       0.157000
      5 C20         42.4000   -37.5260    22.2390 c6         1 V9W       0.216800
      6 C21         42.0450   -35.9100    24.1060 c6         1 V9W       0.229800
      7 C02         42.5170   -24.9440    24.3190 c6         1 V9W      -0.048000
      8 C03         43.4250   -23.9050    23.5830 c3         1 V9W      -0.083100
      9 C04         43.3540   -26.1490    24.8440 c6         1 V9W      -0.066900
     10 C05         43.8830   -27.0500    23.6980 c6         1 V9W       0.168300
     11 C08         43.8750   -29.7480    22.3420 ca         1 V9W      -0.111300
     12 C09         45.2360   -30.0500    22.0750 ca         1 V9W      -0.087000
     13 C11         43.1010   -30.6260    23.1380 ca         1 V9W      -0.020000
     14 C12         43.7080   -31.7850    23.6450 ca         1 V9W       0.065400
     15 C16         44.0370   -34.9150    25.4390 c3         1 V9W      -0.122700
     16 C18         44.4270   -36.5630    23.4880 c6         1 V9W      -0.110400
     17 C19         43.8590   -37.7770    22.6970 c6         1 V9W      -0.101400
     18 C23         40.6270   -38.0200    23.9980 ca         1 V9W       0.420900
     19 C25         38.7670   -38.3180    25.3050 ca         1 V9W       0.190900
     20 C27         39.8330   -40.1980    24.5800 ca         1 V9W       0.397900
     21 C30         42.2560   -42.0980    25.1090 ca         1 V9W      -0.115300
     22 C31         42.1910   -42.2810    26.5060 ca         1 V9W      -0.097000
     23 C32         43.2990   -41.9750    27.3160 ca         1 V9W      -0.110000
     24 C33         44.4810   -41.4850    26.7350 ca         1 V9W      -0.107000
     25 C34         44.5560   -41.3050    25.3440 ca         1 V9W      -0.110000
     26 C35         43.4500   -41.6130    24.5340 ca         1 V9W      -0.097000
     27 C36         40.7650   -39.4090    23.9040 ca         1 V9W      -0.359000
     28 C39         41.9890   -26.4150    22.2600 c6         1 V9W       0.168300
     29 C40         41.4130   -25.4990    23.3710 c6         1 V9W      -0.066900
     30 N06         42.7770   -27.5420    22.8280 n3         1 V9W      -0.715600
     31 N14         45.3110   -33.2290    23.9980 na         1 V9W      -0.318600
     32 N22         41.5510   -37.1380    23.3990 nh         1 V9W      -0.764300
     33 N24         39.6260   -37.4680    24.7090 nb         1 V9W      -0.276000
     34 N26         38.8220   -39.6630    25.2760 nb         1 V9W      -0.294000
     35 N28         39.8910   -41.5780    24.5820 nu         1 V9W      -0.936100
     36 N38         43.1410   -32.7770    24.4410 nd         1 V9W      -0.568100
     37 O37         43.4510   -37.2390    25.5990 oh         1 V9W      -0.637000
     38 H1          46.8670   -31.4630    22.4000 ha         1 V9W       0.116000
     39 H2          42.3910   -36.7180    21.4920 h1         1 V9W       0.054200
     40 H3          42.0050   -38.4170    21.7290 h1         1 V9W       0.054200
     41 H4          41.3810   -35.6170    24.9330 h1         1 V9W       0.088200
     42 H5          42.0550   -35.0620    23.4070 h1         1 V9W       0.088200
     43 H6          41.2010   -24.8570    26.0910 hc         1 V9W       0.032367
     44 H7          42.6150   -23.8030    26.2090 hc         1 V9W       0.032367
     45 H8          41.2530   -23.3470    25.1750 hc         1 V9W       0.032367
     46 H9          43.9390   -24.3370    22.7170 hc         1 V9W       0.032367
     47 H10         42.8380   -23.0530    23.2180 hc         1 V9W       0.032367
     48 H11         44.1980   -23.5080    24.2510 hc         1 V9W       0.032367
     49 H12         44.1980   -25.7920    25.4490 hc         1 V9W       0.046450
     50 H13         42.7370   -26.7640    25.5140 hc         1 V9W       0.046450
     51 H14         44.6190   -26.4920    23.1010 h1         1 V9W       0.029450
     52 H15         44.4200   -27.8960    24.1520 h1         1 V9W       0.029450
     53 H16         43.9600   -27.9760    21.1190 h1         1 V9W       0.035200
     54 H17         42.3920   -28.7820    21.1520 h1         1 V9W       0.035200
     55 H18         45.8350   -29.3760    21.4670 ha         1 V9W       0.110000
     56 H19         42.0590   -30.4080    23.3570 ha         1 V9W       0.139000
     57 H20         45.0230   -35.1510    25.8560 hc         1 V9W       0.071700
     58 H21         43.3970   -34.7160    26.3060 hc         1 V9W       0.071700
     59 H22         44.5470   -35.7190    22.7940 hc         1 V9W       0.042700
     60 H23         45.4320   -36.8010    23.8620 hc         1 V9W       0.042700
     61 H24         43.8990   -38.6830    23.3170 hc         1 V9W       0.053200
     62 H25         44.4890   -37.9780    21.8200 hc         1 V9W       0.053200
     63 H26         37.9530   -37.8720    25.8740 h5         1 V9W       0.039100
     64 H27         40.7930   -43.4810    24.3490 h1         1 V9W       0.055700
     65 H28         41.3110   -42.2680    23.1710 h1         1 V9W       0.055700
     66 H29         41.2780   -42.6560    26.9640 ha         1 V9W       0.111500
     67 H30         43.2400   -42.1160    28.3930 ha         1 V9W       0.112500
     68 H31         45.3370   -41.2460    27.3620 ha         1 V9W       0.112000
     69 H32         45.4700   -40.9260    24.8940 ha         1 V9W       0.112500
     70 H33         43.5200   -41.4700    23.4580 ha         1 V9W       0.111500
     71 H34         41.5760   -39.8600    23.3490 ha         1 V9W       0.126000
     72 H35         41.1510   -26.8050    21.6630 h1         1 V9W       0.029450
     73 H36         42.6130   -25.8180    21.5780 h1         1 V9W       0.029450
     74 H37         40.6800   -26.0760    23.9530 hc         1 V9W       0.046450
     75 H38         40.8540   -24.6730    22.9110 hc         1 V9W       0.046450
     76 H40         46.2000   -33.7100    24.0060 hn         1 V9W       0.353000
     77 H41         39.1490   -42.0270    25.1190 hn         1 V9W       0.501000
     78 H43         42.8920   -37.9150    25.1570 ho         1 V9W       0.436000
     79 C07         43.2410   -28.4800    21.7800 c3         1 V9W       0.218100
     80 C01         41.8600   -24.1940    25.5170 c3         1 V9W      -0.083100
     81 C29         41.0490   -42.4190    24.2280 c3         1 V9W       0.279100
@<TRIPOS>BOND
     1     1     2 ar  
     2     1    12 ar  
     3     1    38 1   
     4     2    14 ar  
     5     2    31 1   
     6     3    15 1   
     7     3    31 1   
     8     3    36 2   
     9     4     6 1   
    10     4    15 1   
    11     4    16 1   
    12     4    37 1   
    13     5    17 1   
    14     5    32 1   
    15     5    39 1   
    16     5    40 1   
    17     6    32 1   
    18     6    41 1   
    19     6    42 1   
    20     7     8 1   
    21     7     9 1   
    22     7    29 1   
    23     7    80 1   
    24     8    46 1   
    25     8    47 1   
    26     8    48 1   
    27     9    10 1   
    28     9    49 1   
    29     9    50 1   
    30    10    30 1   
    31    10    51 1   
    32    10    52 1   
    33    11    12 ar  
    34    11    13 ar  
    35    11    79 1   
    36    12    55 1   
    37    13    14 ar  
    38    13    56 1   
    39    14    36 1   
    40    15    57 1   
    41    15    58 1   
    42    16    17 1   
    43    16    59 1   
    44    16    60 1   
    45    17    61 1   
    46    17    62 1   
    47    18    27 ar  
    48    18    32 1   
    49    18    33 ar  
    50    19    33 ar  
    51    19    34 ar  
    52    19    63 1   
    53    20    27 ar  
    54    20    34 ar  
    55    20    35 1   
    56    21    22 ar  
    57    21    26 ar  
    58    21    81 1   
    59    22    23 ar  
    60    22    66 1   
    61    23    24 ar  
    62    23    67 1   
    63    24    25 ar  
    64    24    68 1   
    65    25    26 ar  
    66    25    69 1   
    67    26    70 1   
    68    27    71 1   
    69    28    29 1   
    70    28    30 1   
    71    28    72 1   
    72    28    73 1   
    73    29    74 1   
    74    29    75 1   
    75    30    79 1   
    76    31    76 1   
    77    35    77 1   
    78    35    81 1   
    79    37    78 1   
    80    43    80 1   
    81    44    80 1   
    82    45    80 1   
    83    53    79 1   
    84    54    79 1   
    85    64    81 1   
    86    65    81 1   
@<TRIPOS>SUBSTRUCTURE
     1 V9W         1 TEMP              0 ****  ****    0 ROOT
