@<TRIPOS>MOLECULE
V9X
   26    27     1     0     0
SMALL
abcg2


@<TRIPOS>ATOM
      1 N1          23.3080    15.5260    35.8310 nt         1 V9X      -0.611000
      2 C7          28.5210    15.0060    36.9050 cc         1 V9X      -0.148100
      3 C8          25.9790    15.3750    36.8870 c3         1 V9X       0.004800
      4 C9          25.4770    16.6250    36.1520 c3         1 V9X      -0.166400
      5 C1          29.1780    17.7590    40.4940 ca         1 V9X      -0.090000
      6 C5          27.0680    17.1880    39.4270 ca         1 V9X      -0.063000
      7 C6          27.3690    15.5540    37.4090 cd         1 V9X      -0.147400
      8 C4          27.7670    16.3820    38.5170 ca         1 V9X      -0.094800
      9 C3          29.1810    16.2850    38.6270 ca         1 V9X      -0.043200
     10 C2          29.8970    16.9690    39.6090 ca         1 V9X      -0.128000
     11 O           23.6430    17.5740    34.9510 o          1 V9X      -0.618100
     12 C10         24.0660    16.6110    35.5940 c          1 V9X       0.599100
     13 C           27.7770    17.8670    40.4060 ca         1 V9X      -0.139000
     14 N           29.6090    15.4410    37.6320 na         1 V9X      -0.233700
     15 H1          22.3660    15.4930    35.4710 hn         1 V9X       0.313500
     16 H2          23.6460    14.7330    36.3490 hn         1 V9X       0.313500
     17 H4          25.3060    15.1500    37.7210 hc         1 V9X       0.041700
     18 H5          25.9540    14.5160    36.2120 hc         1 V9X       0.041700
     19 H6          26.1370    16.8480    35.3090 hc         1 V9X       0.077200
     20 H7          25.5310    17.4940    36.8120 hc         1 V9X       0.077200
     21 H8          29.7040    18.3050    41.2670 ha         1 V9X       0.111000
     22 H9          25.9910    17.2790    39.3680 ha         1 V9X       0.114000
     23 H10         30.9740    16.8870    39.6770 ha         1 V9X       0.113000
     24 H11         27.2490    18.4920    41.1150 ha         1 V9X       0.112000
     25 H12         30.5640    15.1730    37.4620 hn         1 V9X       0.351000
     26 H3          28.6520    14.3300    36.0750 h4         1 V9X       0.212000
@<TRIPOS>BOND
     1     1    12 1   
     2     1    15 1   
     3     1    16 1   
     4     2     7 2   
     5     2    14 1   
     6     2    26 1   
     7     3     4 1   
     8     3     7 1   
     9     3    17 1   
    10     3    18 1   
    11     4    12 1   
    12     4    19 1   
    13     4    20 1   
    14     5    10 ar  
    15     5    13 ar  
    16     5    21 1   
    17     6     8 ar  
    18     6    13 ar  
    19     6    22 1   
    20     7     8 1   
    21     8     9 ar  
    22     9    10 ar  
    23     9    14 1   
    24    10    23 1   
    25    11    12 2   
    26    13    24 1   
    27    14    25 1   
@<TRIPOS>SUBSTRUCTURE
     1 V9X         1 TEMP              0 ****  ****    0 ROOT
