@<TRIPOS>MOLECULE
V9X
   26    27     1     0     0
SMALL
No Charge or Current Charge


@<TRIPOS>ATOM
      1 N1          23.0810    16.4540    36.3170 nt         1 V9X      -0.611000
      2 C7          28.7430    15.2350    36.6300 cc         1 V9X      -0.148100
      3 C8          26.1710    15.2510    36.7330 c3         1 V9X       0.004800
      4 C9          25.5090    16.4550    36.0290 c3         1 V9X      -0.166400
      5 C1          29.0030    17.6000    40.6300 ca         1 V9X      -0.090000
      6 C5          26.9860    16.8590    39.4420 ca         1 V9X      -0.063000
      7 C6          27.5470    15.5810    37.2510 cd         1 V9X      -0.147400
      8 C4          27.8300    16.3040    38.4700 ca         1 V9X      -0.094800
      9 C3          29.1910    16.3830    38.5600 ca         1 V9X      -0.043200
     10 C2          29.8210    17.0270    39.6320 ca         1 V9X      -0.128000
     11 O           23.9090    15.5310    34.4640 o          1 V9X      -0.618100
     12 C10         24.1130    16.1000    35.5230 c          1 V9X       0.599100
     13 C           27.5920    17.5160    40.5350 ca         1 V9X      -0.139000
     14 N           29.7560    15.7490    37.4680 na         1 V9X      -0.233700
     15 H1          22.1380    16.2410    36.0260 hn         1 V9X       0.313500
     16 H2          23.2530    16.9240    37.1930 hn         1 V9X       0.313500
     17 H4          25.5320    14.9180    37.5610 hc         1 V9X       0.041700
     18 H5          26.2280    14.4100    36.0300 hc         1 V9X       0.041700
     19 H6          26.1350    16.7530    35.1810 hc         1 V9X       0.077200
     20 H7          25.4410    17.2700    36.7580 hc         1 V9X       0.077200
     21 H8          29.4590    18.1080    41.4770 ha         1 V9X       0.111000
     22 H9          25.9040    16.7870    39.3590 ha         1 V9X       0.114000
     23 H10         30.9060    17.0850    39.6950 ha         1 V9X       0.113000
     24 H11         26.9700    17.9590    41.3100 ha         1 V9X       0.112000
     25 H12         30.7540    15.6690    37.2990 hn         1 V9X       0.351000
     26 H3          28.9430    14.6960    35.7080 h4         1 V9X       0.212000
@<TRIPOS>BOND
     1     1    12 1   
     2     1    15 1   
     3     1    16 1   
     4     2     7 2   
     5     2    14 1   
     6     2    26 1   
     7     3     4 1   
     8     3     7 1   
     9     3    17 1   
    10     3    18 1   
    11     4    12 1   
    12     4    19 1   
    13     4    20 1   
    14     5    10 ar  
    15     5    13 ar  
    16     5    21 1   
    17     6     8 ar  
    18     6    13 ar  
    19     6    22 1   
    20     7     8 1   
    21     8     9 ar  
    22     9    10 ar  
    23     9    14 1   
    24    10    23 1   
    25    11    12 2   
    26    13    24 1   
    27    14    25 1   
@<TRIPOS>SUBSTRUCTURE
     1 V9X         1 TEMP              0 ****  ****    0 ROOT
