@<TRIPOS>MOLECULE
V9Y
   19    19     1     0     0
SMALL
No Charge or Current Charge


@<TRIPOS>ATOM
      1 C02         40.0820    40.1390    41.1230 c          1 V9Y       0.537100
      2 C05         39.5060    38.8870    40.5620 cc         1 V9Y       0.075500
      3 C06         39.3590    37.6950    41.2250 cd         1 V9Y      -0.111500
      4 C07         38.7750    36.7870    40.3160 cd         1 V9Y      -0.111500
      5 C08         38.5900    37.4610    39.1370 cc         1 V9Y       0.075500
      6 C09         38.0000    36.9040    37.8890 c          1 V9Y       0.537100
      7 N03         40.0990    41.1930    40.2150 ns         1 V9Y      -0.373400
      8 N10         37.9420    37.8260    36.8480 ns         1 V9Y      -0.373400
      9 O01         40.4980    40.2530    42.2720 o          1 V9Y      -0.545600
     10 O04         40.8590    42.3960    40.4830 oh         1 V9Y      -0.421100
     11 O11         37.1630    37.5570    35.6570 oh         1 V9Y      -0.421100
     12 O12         37.6050    35.7490    37.7690 o          1 V9Y      -0.545600
     13 O13         39.0360    38.7650    39.2670 os         1 V9Y      -0.249000
     14 H1          39.6410    37.4950    42.2540 ha         1 V9Y       0.167000
     15 H2          38.5180    35.7490    40.5080 ha         1 V9Y       0.167000
     16 H3          39.8770    41.0040    39.2370 hn         1 V9Y       0.345000
     17 H4          38.1480    38.8050    37.0450 hn         1 V9Y       0.345000
     18 H5          40.2160    43.1230    40.3030 ho         1 V9Y       0.451000
     19 H6          37.7880    37.7600    34.9200 ho         1 V9Y       0.451000
@<TRIPOS>BOND
     1     1     2 1   
     2     1     7 1   
     3     1     9 2   
     4     2     3 2   
     5     2    13 1   
     6     3     4 1   
     7     3    14 1   
     8     4     5 2   
     9     4    15 1   
    10     5     6 1   
    11     5    13 1   
    12     6     8 1   
    13     6    12 2   
    14     7    10 1   
    15     7    16 1   
    16     8    11 1   
    17     8    17 1   
    18    10    18 1   
    19    11    19 1   
@<TRIPOS>SUBSTRUCTURE
     1 V9Y         1 TEMP              0 ****  ****    0 ROOT
