@<TRIPOS>MOLECULE
V9Y
   19    19     1     0     0
SMALL
abcg2


@<TRIPOS>ATOM
      1 C02         40.0980    40.1440    40.9910 c          1 V9Y       0.537100
      2 C05         39.5180    38.8670    40.5400 cc         1 V9Y       0.075500
      3 C06         39.3730    37.6980    41.2170 cd         1 V9Y      -0.111500
      4 C07         38.7610    36.7940    40.3140 cd         1 V9Y      -0.111500
      5 C08         38.5800    37.4820    39.1560 cc         1 V9Y       0.075500
      6 C09         37.9810    37.0360    37.8860 c          1 V9Y       0.537100
      7 N03         40.0810    41.1330    40.0780 ns         1 V9Y      -0.373400
      8 N10         37.9560    37.9650    36.9110 ns         1 V9Y      -0.373400
      9 O01         40.5200    40.2580    42.1280 o          1 V9Y      -0.545600
     10 O04         40.7480    42.2860    40.3510 oh         1 V9Y      -0.421100
     11 O11         37.2710    37.6940    35.7680 oh         1 V9Y      -0.421100
     12 O12         37.5810    35.8930    37.7640 o          1 V9Y      -0.545600
     13 O13         39.0380    38.7420    39.2870 os         1 V9Y      -0.249000
     14 H1          39.6670    37.5050    42.2350 ha         1 V9Y       0.167000
     15 H2          38.4890    35.7680    40.5000 ha         1 V9Y       0.167000
     16 H3          39.9100    40.9720    39.0950 hn         1 V9Y       0.345000
     17 H4          38.1190    38.9480    37.0790 hn         1 V9Y       0.345000
     18 H5          40.0750    42.9260    40.6180 ho         1 V9Y       0.451000
     19 H6          37.9340    37.4390    35.1120 ho         1 V9Y       0.451000
@<TRIPOS>BOND
     1     1     2 1   
     2     1     7 1   
     3     1     9 2   
     4     2     3 2   
     5     2    13 1   
     6     3     4 1   
     7     3    14 1   
     8     4     5 2   
     9     4    15 1   
    10     5     6 1   
    11     5    13 1   
    12     6     8 1   
    13     6    12 2   
    14     7    10 1   
    15     7    16 1   
    16     8    11 1   
    17     8    17 1   
    18    10    18 1   
    19    11    19 1   
@<TRIPOS>SUBSTRUCTURE
     1 V9Y         1 TEMP              0 ****  ****    0 ROOT
