@<TRIPOS>MOLECULE
V9Z
   62    64     1     0     0
SMALL
No Charge or Current Charge


@<TRIPOS>ATOM
      1 N12        -18.3980    -6.4010   -21.9930 n          1 V9Z      -0.391800
      2 C13        -17.3510    -6.2730   -23.0450 c3         1 V9Z       0.115000
      3 C21        -14.6390    -6.0700   -26.4840 ca         1 V9Z      -0.108250
      4 C01        -22.4640    -3.5480   -20.9440 c3         1 V9Z       0.096300
      5 N05        -21.6830    -4.5300   -21.7010 ns         1 V9Z      -0.504900
      6 C07        -20.3820    -4.8790   -21.4090 c          1 V9Z       0.594100
      7 O08        -19.7730    -4.3690   -20.4760 o          1 V9Z      -0.596100
      8 C09        -19.7690    -5.9330   -22.3590 c3         1 V9Z       0.017000
      9 C16        -17.4710    -7.3380   -24.1660 c3         1 V9Z       0.004900
     10 C18        -16.6020    -7.0500   -25.3990 ca         1 V9Z      -0.077800
     11 C19        -15.4040    -6.3010   -25.3280 ca         1 V9Z      -0.102750
     12 C23        -15.0550    -6.5860   -27.7220 ca         1 V9Z      -0.111000
     13 C25        -16.2380    -7.3370   -27.8020 ca         1 V9Z      -0.108250
     14 C27        -17.0050    -7.5690   -26.6470 ca         1 V9Z      -0.102750
     15 C29        -17.1820    -8.7360   -23.6160 ca         1 V9Z      -0.077800
     16 C30        -15.8700    -9.1080   -23.2540 ca         1 V9Z      -0.102750
     17 C32        -15.6110   -10.3860   -22.7290 ca         1 V9Z      -0.108250
     18 C34        -16.6610   -11.3010   -22.5550 ca         1 V9Z      -0.111000
     19 C36        -17.9710   -10.9380   -22.9110 ca         1 V9Z      -0.108250
     20 C38        -18.2300    -9.6620   -23.4400 ca         1 V9Z      -0.102750
     21 C40        -18.2310    -7.2580   -20.8760 c          1 V9Z       0.627700
     22 O41        -19.2070    -7.7360   -20.3060 o          1 V9Z      -0.593100
     23 C42        -16.8440    -7.5120   -20.3340 ca         1 V9Z      -0.135600
     24 C43        -15.8970    -6.4740   -20.2090 ca         1 V9Z      -0.070500
     25 C45        -14.6100    -6.7320   -19.7000 ca         1 V9Z      -0.094300
     26 C46        -13.5980    -5.5950   -19.5960 c3         1 V9Z      -0.040300
     27 C50        -14.2760    -8.0400   -19.2880 ca         1 V9Z       0.108100
     28 O51        -13.0190    -8.2940   -18.7900 os         1 V9Z      -0.367100
     29 C52        -12.8130    -8.2640   -17.3680 c3         1 V9Z       0.151900
     30 C56        -15.2220    -9.0850   -19.3870 ca         1 V9Z      -0.094300
     31 C57        -14.8770   -10.5110   -18.9710 c3         1 V9Z      -0.040300
     32 C61        -16.5050    -8.8060   -19.8930 ca         1 V9Z      -0.070500
     33 H1         -16.3490    -6.3320   -22.6140 h1         1 V9Z       0.066200
     34 H2         -17.4430    -5.2770   -23.4960 h1         1 V9Z       0.066200
     35 H3         -13.7190    -5.4920   -26.4190 ha         1 V9Z       0.114000
     36 H4         -23.4660    -3.4610   -21.3820 h1         1 V9Z       0.040033
     37 H5         -22.5530    -3.8730   -19.8990 h1         1 V9Z       0.040033
     38 H6         -21.9660    -2.5710   -20.9820 h1         1 V9Z       0.040033
     39 H7         -22.1190    -4.9910   -22.4920 hn         1 V9Z       0.314500
     40 H8         -19.7570    -5.4920   -23.3630 h1         1 V9Z       0.059700
     41 H9         -20.4480    -6.7940   -22.3920 h1         1 V9Z       0.059700
     42 H10        -18.5130    -7.3060   -24.5060 hc         1 V9Z       0.055700
     43 H11        -15.0500    -5.8970   -24.3830 ha         1 V9Z       0.113000
     44 H12        -14.4610    -6.4070   -28.6150 ha         1 V9Z       0.113000
     45 H13        -16.5610    -7.7410   -28.7590 ha         1 V9Z       0.114000
     46 H14        -17.9170    -8.1570   -26.7220 ha         1 V9Z       0.113000
     47 H15        -15.0490    -8.4060   -23.3730 ha         1 V9Z       0.113000
     48 H16        -14.5970   -10.6620   -22.4490 ha         1 V9Z       0.114000
     49 H17        -16.4610   -12.2880   -22.1440 ha         1 V9Z       0.113000
     50 H18        -18.7860   -11.6460   -22.7750 ha         1 V9Z       0.114000
     51 H19        -19.2500    -9.3920   -23.7050 ha         1 V9Z       0.113000
     52 H20        -16.1660    -5.4610   -20.5010 ha         1 V9Z       0.129000
     53 H21        -13.4240    -5.3200   -18.5490 hc         1 V9Z       0.044367
     54 H22        -12.6340    -5.8820   -20.0330 hc         1 V9Z       0.044367
     55 H23        -13.9390    -4.6960   -20.1220 hc         1 V9Z       0.044367
     56 H24        -11.7640    -8.4810   -17.1300 h1         1 V9Z       0.034700
     57 H25        -13.0600    -7.2750   -16.9610 h1         1 V9Z       0.034700
     58 H26        -13.4410    -9.0100   -16.8660 h1         1 V9Z       0.034700
     59 H27        -13.8600   -10.7830   -19.2740 hc         1 V9Z       0.044367
     60 H28        -14.9500   -10.6310   -17.8840 hc         1 V9Z       0.044367
     61 H29        -15.5560   -11.2400   -19.4300 hc         1 V9Z       0.044367
     62 H30        -17.2380    -9.6070   -19.9740 ha         1 V9Z       0.129000
@<TRIPOS>BOND
     1     1     2 1   
     2     1     8 1   
     3     1    21 1   
     4     2     9 1   
     5     2    33 1   
     6     2    34 1   
     7     3    11 ar  
     8     3    12 ar  
     9     3    35 1   
    10     4     5 1   
    11     4    36 1   
    12     4    37 1   
    13     4    38 1   
    14     5     6 1   
    15     5    39 1   
    16     6     7 2   
    17     6     8 1   
    18     8    40 1   
    19     8    41 1   
    20     9    10 1   
    21     9    15 1   
    22     9    42 1   
    23    10    11 ar  
    24    10    14 ar  
    25    11    43 1   
    26    12    13 ar  
    27    12    44 1   
    28    13    14 ar  
    29    13    45 1   
    30    14    46 1   
    31    15    16 ar  
    32    15    20 ar  
    33    16    17 ar  
    34    16    47 1   
    35    17    18 ar  
    36    17    48 1   
    37    18    19 ar  
    38    18    49 1   
    39    19    20 ar  
    40    19    50 1   
    41    20    51 1   
    42    21    22 2   
    43    21    23 1   
    44    23    24 ar  
    45    23    32 ar  
    46    24    25 ar  
    47    24    52 1   
    48    25    26 1   
    49    25    27 ar  
    50    26    53 1   
    51    26    54 1   
    52    26    55 1   
    53    27    28 1   
    54    27    30 ar  
    55    28    29 1   
    56    29    56 1   
    57    29    57 1   
    58    29    58 1   
    59    30    31 1   
    60    30    32 ar  
    61    31    59 1   
    62    31    60 1   
    63    31    61 1   
    64    32    62 1   
@<TRIPOS>SUBSTRUCTURE
     1 V9Z         1 TEMP              0 ****  ****    0 ROOT
