@<TRIPOS>MOLECULE
V9Z
   62    64     1     0     0
SMALL
abcg2


@<TRIPOS>ATOM
      1 N12        -18.3430    -6.4790   -22.1260 n          1 V9Z      -0.391800
      2 C13        -17.2960    -6.3600   -23.1190 c3         1 V9Z       0.115000
      3 C21        -14.4820    -6.2320   -26.3690 ca         1 V9Z      -0.108250
      4 C01        -22.1510    -3.8550   -20.6570 c3         1 V9Z       0.096300
      5 N05        -21.4960    -4.8840   -21.4300 ns         1 V9Z      -0.504900
      6 C07        -20.1660    -4.9490   -21.5570 c          1 V9Z       0.594100
      7 O08        -19.4000    -4.1650   -21.0210 o          1 V9Z      -0.596100
      8 C09        -19.6690    -6.0470   -22.4930 c3         1 V9Z       0.017000
      9 C16        -17.4370    -7.4020   -24.2410 c3         1 V9Z       0.004900
     10 C18        -16.5190    -7.1170   -25.4080 ca         1 V9Z      -0.077800
     11 C19        -15.2960    -6.4650   -25.2660 ca         1 V9Z      -0.102750
     12 C23        -14.8780    -6.6480   -27.6310 ca         1 V9Z      -0.111000
     13 C25        -16.0940    -7.3020   -27.7850 ca         1 V9Z      -0.108250
     14 C27        -16.9030    -7.5310   -26.6830 ca         1 V9Z      -0.102750
     15 C29        -17.2640    -8.8030   -23.6910 ca         1 V9Z      -0.077800
     16 C30        -16.0040    -9.3760   -23.5350 ca         1 V9Z      -0.102750
     17 C32        -15.8630   -10.6430   -22.9880 ca         1 V9Z      -0.108250
     18 C34        -16.9830   -11.3580   -22.5820 ca         1 V9Z      -0.111000
     19 C36        -18.2430   -10.7960   -22.7290 ca         1 V9Z      -0.108250
     20 C38        -18.3790    -9.5280   -23.2810 ca         1 V9Z      -0.102750
     21 C40        -18.2140    -7.0910   -20.9270 c          1 V9Z       0.627700
     22 O41        -19.1920    -7.3700   -20.2470 o          1 V9Z      -0.593100
     23 C42        -16.8390    -7.3630   -20.4140 ca         1 V9Z      -0.135600
     24 C43        -15.9670    -6.3130   -20.1570 ca         1 V9Z      -0.070500
     25 C45        -14.7210    -6.5400   -19.5840 ca         1 V9Z      -0.094300
     26 C46        -13.7790    -5.4020   -19.3220 c3         1 V9Z      -0.040300
     27 C50        -14.3620    -7.8570   -19.2860 ca         1 V9Z       0.108100
     28 O51        -13.1280    -8.1070   -18.7600 os         1 V9Z      -0.367100
     29 C52        -13.0790    -8.0910   -17.3400 c3         1 V9Z       0.151900
     30 C56        -15.2160    -8.9300   -19.5500 ca         1 V9Z      -0.094300
     31 C57        -14.7910   -10.3420   -19.2730 c3         1 V9Z      -0.040300
     32 C61        -16.4630    -8.6610   -20.1020 ca         1 V9Z      -0.070500
     33 H1         -16.3280    -6.4640   -22.6360 h1         1 V9Z       0.066200
     34 H2         -17.3320    -5.3550   -23.5450 h1         1 V9Z       0.066200
     35 H3         -13.5370    -5.7220   -26.2370 ha         1 V9Z       0.114000
     36 H4         -23.2250    -3.9790   -20.7590 h1         1 V9Z       0.040033
     37 H5         -21.8960    -3.9200   -19.5990 h1         1 V9Z       0.040033
     38 H6         -21.8860    -2.8590   -21.0120 h1         1 V9Z       0.040033
     39 H7         -22.0660    -5.5890   -21.8660 hn         1 V9Z       0.314500
     40 H8         -19.6270    -5.6220   -23.4980 h1         1 V9Z       0.059700
     41 H9         -20.3740    -6.8810   -22.5370 h1         1 V9Z       0.059700
     42 H10        -18.4600    -7.3300   -24.6250 hc         1 V9Z       0.055700
     43 H11        -14.9580    -6.1320   -24.2930 ha         1 V9Z       0.113000
     44 H12        -14.2450    -6.4630   -28.4900 ha         1 V9Z       0.113000
     45 H13        -16.4160    -7.6290   -28.7660 ha         1 V9Z       0.114000
     46 H14        -17.8520    -8.0390   -26.8110 ha         1 V9Z       0.113000
     47 H15        -15.1200    -8.8340   -23.8490 ha         1 V9Z       0.113000
     48 H16        -14.8760   -11.0730   -22.8750 ha         1 V9Z       0.114000
     49 H17        -16.8730   -12.3480   -22.1570 ha         1 V9Z       0.113000
     50 H18        -19.1230   -11.3450   -22.4190 ha         1 V9Z       0.114000
     51 H19        -19.3690    -9.1030   -23.4020 ha         1 V9Z       0.113000
     52 H20        -16.2590    -5.2970   -20.3990 ha         1 V9Z       0.129000
     53 H21        -13.6210    -5.2390   -18.2540 hc         1 V9Z       0.044367
     54 H22        -12.7990    -5.5790   -19.7660 hc         1 V9Z       0.044367
     55 H23        -14.1720    -4.4750   -19.7370 hc         1 V9Z       0.044367
     56 H24        -12.0570    -8.3270   -17.0490 h1         1 V9Z       0.034700
     57 H25        -13.3400    -7.1100   -16.9340 h1         1 V9Z       0.034700
     58 H26        -13.7490    -8.8350   -16.9010 h1         1 V9Z       0.034700
     59 H27        -13.8490   -10.5820   -19.7680 hc         1 V9Z       0.044367
     60 H28        -14.6490   -10.5260   -18.2070 hc         1 V9Z       0.044367
     61 H29        -15.5420   -11.0450   -19.6310 hc         1 V9Z       0.044367
     62 H30        -17.1350    -9.4830   -20.3160 ha         1 V9Z       0.129000
@<TRIPOS>BOND
     1     1     2 1   
     2     1     8 1   
     3     1    21 1   
     4     2     9 1   
     5     2    33 1   
     6     2    34 1   
     7     3    11 ar  
     8     3    12 ar  
     9     3    35 1   
    10     4     5 1   
    11     4    36 1   
    12     4    37 1   
    13     4    38 1   
    14     5     6 1   
    15     5    39 1   
    16     6     7 2   
    17     6     8 1   
    18     8    40 1   
    19     8    41 1   
    20     9    10 1   
    21     9    15 1   
    22     9    42 1   
    23    10    11 ar  
    24    10    14 ar  
    25    11    43 1   
    26    12    13 ar  
    27    12    44 1   
    28    13    14 ar  
    29    13    45 1   
    30    14    46 1   
    31    15    16 ar  
    32    15    20 ar  
    33    16    17 ar  
    34    16    47 1   
    35    17    18 ar  
    36    17    48 1   
    37    18    19 ar  
    38    18    49 1   
    39    19    20 ar  
    40    19    50 1   
    41    20    51 1   
    42    21    22 2   
    43    21    23 1   
    44    23    24 ar  
    45    23    32 ar  
    46    24    25 ar  
    47    24    52 1   
    48    25    26 1   
    49    25    27 ar  
    50    26    53 1   
    51    26    54 1   
    52    26    55 1   
    53    27    28 1   
    54    27    30 ar  
    55    28    29 1   
    56    29    56 1   
    57    29    57 1   
    58    29    58 1   
    59    30    31 1   
    60    30    32 ar  
    61    31    59 1   
    62    31    60 1   
    63    31    61 1   
    64    32    62 1   
@<TRIPOS>SUBSTRUCTURE
     1 V9Z         1 TEMP              0 ****  ****    0 ROOT
