@<TRIPOS>MOLECULE
VA0
   95    98     1     0     0
SMALL
abcg2


@<TRIPOS>ATOM
      1 C1          14.9780   -14.5850    -0.3440 c          1 VA0       0.592900
      2 C2          15.0310   -15.1350    -1.7320 cc         1 VA0       0.043400
      3 C3          14.4560   -14.4470    -2.7480 cd         1 VA0      -0.342200
      4 C4          13.7580   -13.1960    -2.5410 c          1 VA0       0.563900
      5 C5          12.6120   -11.7200    -0.8080 ca         1 VA0      -0.263600
      6 C6          12.4740   -11.3440     0.5460 ca         1 VA0       0.198100
      7 C7          13.1090   -11.9470     1.6140 ca         1 VA0      -0.155300
      8 C8          13.9410   -13.0220     1.2780 ca         1 VA0       0.267100
      9 C9          14.1200   -13.4400    -0.0740 ca         1 VA0      -0.312600
     10 C10         13.5170   -12.7370    -1.1330 ca         1 VA0       0.041400
     11 C11         11.7800   -10.7600    -1.5660 c          1 VA0       0.555700
     12 C12         10.9770    -9.9860    -0.4930 c5         1 VA0       0.280000
     13 C13         10.9790    -8.4930    -0.6680 c3         1 VA0      -0.075100
     14 C14         12.8810   -11.5240     3.0270 c3         1 VA0      -0.028800
     15 C15         15.5900   -17.2200    -2.9220 c          1 VA0       0.628300
     16 C16         15.4100   -18.6580    -2.6410 ce         1 VA0      -0.206400
     17 C17         14.6860   -19.4020    -3.5020 cf         1 VA0      -0.057000
     18 C18         14.1040   -19.0070    -4.7720 cf         1 VA0      -0.201000
     19 C19         12.9050   -19.3610    -5.2610 c2         1 VA0      -0.180200
     20 C20         11.7340   -20.0440    -4.5810 c3         1 VA0      -0.033500
     21 C21         11.1660   -19.2170    -3.4120 c3         1 VA0       0.189300
     22 C22          9.8080   -19.7040    -2.8650 c3         1 VA0      -0.090700
     23 C23          9.1360   -18.7240    -1.8620 c3         1 VA0       0.174300
     24 C24          9.1410   -17.2570    -2.3170 c3         1 VA0      -0.110700
     25 C25          8.5450   -16.3240    -1.1960 c3         1 VA0       0.169300
     26 C26          9.0190   -14.8760    -1.3200 c3         1 VA0      -0.051700
     27 C27          8.1200   -13.8920    -0.5590 c3         1 VA0       0.218500
     28 C28          8.3800   -12.4180    -0.8080 c2         1 VA0      -0.284200
     29 C29          9.4140   -11.7710    -0.2880 c2         1 VA0      -0.020900
     30 C30         15.9960   -19.2900    -1.3950 c3         1 VA0      -0.041900
     31 C31         10.7000   -20.4430    -5.6350 c3         1 VA0      -0.086100
     32 C32          9.8780   -21.1210    -2.2940 c3         1 VA0      -0.075100
     33 C33          8.2950   -17.1100    -3.5890 c3         1 VA0      -0.084100
     34 C34         10.5030   -14.7990    -0.9140 c3         1 VA0      -0.096100
     35 C36          4.9410   -16.9270    -0.5460 c3         1 VA0      -0.152100
     36 N1          15.5180   -16.4080    -1.7750 ns         1 VA0      -0.419100
     37 O1          15.6320   -15.1550     0.5370 o          1 VA0      -0.577100
     38 O2          14.4790   -13.7070     2.2860 oh         1 VA0      -0.532100
     39 O3          11.6000   -10.3280     0.7580 os         1 VA0      -0.332100
     40 O4          11.5910   -10.5670    -2.7420 o          1 VA0      -0.426100
     41 O5           9.6290   -10.4260    -0.5010 os         1 VA0      -0.344100
     42 O6           8.1070   -14.2450     0.8290 os         1 VA0      -0.463000
     43 O7           7.1030   -16.3850    -1.2810 os         1 VA0      -0.459100
     44 O8           6.9520   -17.6510     0.5790 o          1 VA0      -0.488000
     45 O9           9.8190   -18.9240    -0.6140 oh         1 VA0      -0.677000
     46 O10         12.1390   -19.1660    -2.3720 oh         1 VA0      -0.672000
     47 O11         15.6360   -16.7200    -4.0330 o          1 VA0      -0.551100
     48 O12         13.2650   -12.6040    -3.4940 o          1 VA0      -0.473100
     49 H1          14.5480   -14.8000    -3.7620 ha         1 VA0       0.241000
     50 H3          10.4060    -8.0070     0.1200 hc         1 VA0       0.068367
     51 H4          12.0080    -8.1320    -0.6660 hc         1 VA0       0.068367
     52 H5          10.5690    -8.2460    -1.6470 hc         1 VA0       0.068367
     53 H6          12.0130   -12.0460     3.4450 hc         1 VA0       0.054700
     54 H7          13.7150   -11.8080     3.6660 hc         1 VA0       0.054700
     55 H8          12.6870   -10.4560     3.1020 hc         1 VA0       0.054700
     56 H9          14.4330   -20.4040    -3.1650 ha         1 VA0       0.186000
     57 H10         14.6900   -18.3380    -5.3870 ha         1 VA0       0.203000
     58 H12         12.7400   -19.2060    -6.3250 ha         1 VA0       0.170000
     59 H14         12.1330   -20.9670    -4.1340 hc         1 VA0       0.064700
     60 H15         10.9890   -18.2000    -3.7850 h1         1 VA0       0.026700
     61 H16          9.1300   -19.7370    -3.7190 hc         1 VA0       0.048700
     62 H17          8.1010   -19.0770    -1.7920 h1         1 VA0       0.044700
     63 H18         10.1400   -16.8670    -2.4930 hc         1 VA0       0.072700
     64 H19          8.8340   -16.7310    -0.2340 h1         1 VA0       0.071700
     65 H20          8.9910   -14.5810    -2.3740 hc         1 VA0       0.068700
     66 H21          7.1140   -14.0600    -0.9580 h1         1 VA0       0.043700
     67 H22          7.6230   -11.8360    -1.3220 ha         1 VA0       0.193000
     68 H23         10.1290   -12.2610     0.3600 h4         1 VA0       0.187000
     69 H24         16.5660   -18.5810    -0.7940 hc         1 VA0       0.044700
     70 H25         15.2200   -19.7180    -0.7600 hc         1 VA0       0.044700
     71 H26         16.7150   -20.0580    -1.6820 hc         1 VA0       0.044700
     72 H27          9.8420   -20.9530    -5.2020 hc         1 VA0       0.038367
     73 H28         10.3320   -19.5630    -6.1690 hc         1 VA0       0.038367
     74 H29         11.1580   -21.1270    -6.3510 hc         1 VA0       0.038367
     75 H30          8.8940   -21.4390    -1.9380 hc         1 VA0       0.039700
     76 H31         10.1700   -21.8360    -3.0640 hc         1 VA0       0.039700
     77 H32         10.5730   -21.1850    -1.4590 hc         1 VA0       0.039700
     78 H33          8.1580   -16.0600    -3.8490 hc         1 VA0       0.041033
     79 H34          8.7210   -17.6490    -4.4350 hc         1 VA0       0.041033
     80 H35          7.2920   -17.5000    -3.4130 hc         1 VA0       0.041033
     81 H36         10.8340   -13.7690    -0.8960 hc         1 VA0       0.042700
     82 H37         10.6180   -15.1600     0.1140 hc         1 VA0       0.042700
     83 H38         11.1410   -15.4290    -1.5350 hc         1 VA0       0.042700
     84 H39          4.4200   -17.4770     0.2320 hc         1 VA0       0.071033
     85 H40          4.6460   -15.8770    -0.5560 hc         1 VA0       0.071033
     86 H41          4.7150   -17.3630    -1.5200 hc         1 VA0       0.071033
     87 H42          6.9790   -14.2590     2.5130 h1         1 VA0       0.031700
     88 H43          6.7380   -12.8260     1.5020 h1         1 VA0       0.031700
     89 H44          6.0440   -14.4190     1.0220 h1         1 VA0       0.031700
     90 H45         15.1360   -14.3430     1.9060 ho         1 VA0       0.521000
     91 H46          9.4700   -18.3100     0.0580 ho         1 VA0       0.457000
     92 H47         11.7740   -18.6270    -1.6550 ho         1 VA0       0.461000
     93 H2          15.9490   -16.7370    -0.9220 hn         1 VA0       0.347500
     94 C35          6.4250   -17.0300    -0.3190 c          1 VA0       0.589100
     95 C37          6.8960   -13.9110     1.4830 c3         1 VA0       0.145900
@<TRIPOS>BOND
     1     1     2 1   
     2     1     9 1   
     3     1    37 2   
     4     2     3 2   
     5     2    36 1   
     6     3     4 1   
     7     3    49 1   
     8     4    10 1   
     9     4    48 2   
    10     5     6 ar  
    11     5    10 ar  
    12     5    11 1   
    13     6     7 ar  
    14     6    39 1   
    15     7     8 ar  
    16     7    14 1   
    17     8     9 ar  
    18     8    38 1   
    19     9    10 ar  
    20    11    12 1   
    21    11    40 2   
    22    12    13 1   
    23    12    39 1   
    24    12    41 1   
    25    13    50 1   
    26    13    51 1   
    27    13    52 1   
    28    14    53 1   
    29    14    54 1   
    30    14    55 1   
    31    15    16 1   
    32    15    36 1   
    33    15    47 2   
    34    16    17 2   
    35    16    30 1   
    36    17    18 1   
    37    17    56 1   
    38    18    19 2   
    39    18    57 1   
    40    19    20 1   
    41    19    58 1   
    42    20    21 1   
    43    20    31 1   
    44    20    59 1   
    45    21    22 1   
    46    21    46 1   
    47    21    60 1   
    48    22    23 1   
    49    22    32 1   
    50    22    61 1   
    51    23    24 1   
    52    23    45 1   
    53    23    62 1   
    54    24    25 1   
    55    24    33 1   
    56    24    63 1   
    57    25    26 1   
    58    25    43 1   
    59    25    64 1   
    60    26    27 1   
    61    26    34 1   
    62    26    65 1   
    63    27    28 1   
    64    27    42 1   
    65    27    66 1   
    66    28    29 2   
    67    28    67 1   
    68    29    41 1   
    69    29    68 1   
    70    30    69 1   
    71    30    70 1   
    72    30    71 1   
    73    31    72 1   
    74    31    73 1   
    75    31    74 1   
    76    32    75 1   
    77    32    76 1   
    78    32    77 1   
    79    33    78 1   
    80    33    79 1   
    81    33    80 1   
    82    34    81 1   
    83    34    82 1   
    84    34    83 1   
    85    35    84 1   
    86    35    85 1   
    87    35    86 1   
    88    35    94 1   
    89    36    93 1   
    90    38    90 1   
    91    42    95 1   
    92    43    94 1   
    93    44    94 2   
    94    45    91 1   
    95    46    92 1   
    96    87    95 1   
    97    88    95 1   
    98    89    95 1   
@<TRIPOS>SUBSTRUCTURE
     1 VA0         1 TEMP              0 ****  ****    0 ROOT
