@<TRIPOS>MOLECULE
VA0
   95    98     1     0     0
SMALL
No Charge or Current Charge


@<TRIPOS>ATOM
      1 C1          14.5740   -14.7520    -0.1380 c          1 VA0       0.592900
      2 C2          14.6280   -15.1790    -1.5710 cc         1 VA0       0.043400
      3 C3          14.3020   -14.3080    -2.5890 cd         1 VA0      -0.342200
      4 C4          13.7760   -12.9640    -2.3410 c          1 VA0       0.563900
      5 C5          12.5840   -11.5110    -0.5440 ca         1 VA0      -0.263600
      6 C6          12.3500   -11.1780     0.7800 ca         1 VA0       0.198100
      7 C7          12.9150   -11.9010     1.8340 ca         1 VA0      -0.155300
      8 C8          13.6690   -13.0460     1.5180 ca         1 VA0       0.267100
      9 C9          13.8970   -13.4300     0.1700 ca         1 VA0      -0.312600
     10 C10         13.4180   -12.6110    -0.8980 ca         1 VA0       0.041400
     11 C11         11.7240   -10.6380    -1.3930 c          1 VA0       0.555700
     12 C12         10.9170    -9.8310    -0.3220 c5         1 VA0       0.280000
     13 C13         11.0470    -8.3110    -0.5460 c3         1 VA0      -0.075100
     14 C14         12.6370   -11.5100     3.2880 c3         1 VA0      -0.028800
     15 C15         15.0040   -17.2940    -2.9150 c          1 VA0       0.628300
     16 C16         15.1710   -18.7810    -2.6650 ce         1 VA0      -0.206400
     17 C17         14.8340   -19.7270    -3.5990 cf         1 VA0      -0.057000
     18 C18         14.3050   -19.4580    -4.9280 cf         1 VA0      -0.201000
     19 C19         13.0430   -19.7110    -5.3500 c2         1 VA0      -0.180200
     20 C20         11.8770   -20.3510    -4.5880 c3         1 VA0      -0.033500
     21 C21         11.2070   -19.3460    -3.5790 c3         1 VA0       0.189300
     22 C22          9.8060   -19.7350    -2.9940 c3         1 VA0      -0.090700
     23 C23          9.2180   -18.6550    -2.0160 c3         1 VA0       0.174300
     24 C24          9.1690   -17.1740    -2.5310 c3         1 VA0      -0.110700
     25 C25          8.6650   -16.1600    -1.4350 c3         1 VA0       0.169300
     26 C26          8.8560   -14.6320    -1.7360 c3         1 VA0      -0.051700
     27 C27          8.1530   -13.7470    -0.6520 c3         1 VA0       0.218500
     28 C28          8.3990   -12.2520    -0.8200 c2         1 VA0      -0.284200
     29 C29          9.3000   -11.5300    -0.1370 c2         1 VA0      -0.020900
     30 C30         15.6610   -19.2230    -1.2860 c3         1 VA0      -0.041900
     31 C31         10.8830   -20.9040    -5.6470 c3         1 VA0      -0.086100
     32 C32          9.7880   -21.1420    -2.3190 c3         1 VA0      -0.075100
     33 C33          8.3800   -17.0460    -3.8660 c3         1 VA0      -0.084100
     34 C34         10.3560   -14.2560    -1.9190 c3         1 VA0      -0.096100
     35 C36          5.3340   -17.3100    -0.1350 c3         1 VA0      -0.152100
     36 N1          15.0380   -16.5060    -1.7750 ns         1 VA0      -0.419100
     37 O1          15.0010   -15.4700     0.7640 o          1 VA0      -0.577100
     38 O2          14.1470   -13.8090     2.5410 oh         1 VA0      -0.532100
     39 O3          11.4620   -10.1480     0.9940 os         1 VA0      -0.332100
     40 O4          11.5870   -10.6450    -2.6090 o          1 VA0      -0.426100
     41 O5           9.4920   -10.1850    -0.3650 os         1 VA0      -0.344100
     42 O6           8.6400   -14.1520     0.6440 os         1 VA0      -0.463000
     43 O7           7.2530   -16.3870    -1.2200 os         1 VA0      -0.459100
     44 O8           7.6010   -17.8090     0.5600 o          1 VA0      -0.488000
     45 O9           9.9630   -18.6880    -0.7900 oh         1 VA0      -0.677000
     46 O10         12.0580   -19.1180    -2.4580 oh         1 VA0      -0.672000
     47 O11         14.8070   -16.8230    -4.0250 o          1 VA0      -0.551100
     48 O12         13.6840   -12.1820    -3.2740 o          1 VA0      -0.473100
     49 H1          14.4270   -14.5270    -3.6400 ha         1 VA0       0.241000
     50 H3          10.4940    -7.7540     0.2190 hc         1 VA0       0.068367
     51 H4          12.0950    -7.9950    -0.5020 hc         1 VA0       0.068367
     52 H5          10.6490    -8.0230    -1.5260 hc         1 VA0       0.068367
     53 H6          11.8750   -12.1630     3.7290 hc         1 VA0       0.054700
     54 H7          13.5410   -11.5870     3.9040 hc         1 VA0       0.054700
     55 H8          12.2810   -10.4770     3.3810 hc         1 VA0       0.054700
     56 H9          14.9020   -20.7810    -3.3200 ha         1 VA0       0.186000
     57 H10         14.9840   -18.9430    -5.6120 ha         1 VA0       0.203000
     58 H12         12.7900   -19.4030    -6.3670 ha         1 VA0       0.170000
     59 H14         12.2530   -21.2080    -4.0170 hc         1 VA0       0.064700
     60 H15         11.0780   -18.4050    -4.1290 h1         1 VA0       0.026700
     61 H16          9.1090   -19.7970    -3.8370 hc         1 VA0       0.048700
     62 H17          8.1830   -18.9630    -1.8130 h1         1 VA0       0.044700
     63 H18         10.2040   -16.8980    -2.7490 hc         1 VA0       0.072700
     64 H19          9.2320   -16.3330    -0.5110 h1         1 VA0       0.071700
     65 H20          8.3520   -14.4040    -2.6810 hc         1 VA0       0.068700
     66 H21          7.0710   -13.9280    -0.7190 h1         1 VA0       0.043700
     67 H22          7.7850   -11.7800    -1.5870 ha         1 VA0       0.193000
     68 H23          9.9200   -11.9810     0.6400 h4         1 VA0       0.187000
     69 H24         16.5900   -18.7100    -1.0050 hc         1 VA0       0.044700
     70 H25         14.9110   -19.0230    -0.5100 hc         1 VA0       0.044700
     71 H26         15.8730   -20.2980    -1.2520 hc         1 VA0       0.044700
     72 H27         10.0890   -21.5090    -5.1980 hc         1 VA0       0.038367
     73 H28         10.4110   -20.0850    -6.2030 hc         1 VA0       0.038367
     74 H29         11.4080   -21.5460    -6.3650 hc         1 VA0       0.038367
     75 H30          8.7870   -21.3680    -1.9340 hc         1 VA0       0.039700
     76 H31         10.0560   -21.9390    -3.0190 hc         1 VA0       0.039700
     77 H32         10.4920   -21.1950    -1.4790 hc         1 VA0       0.039700
     78 H33          8.3840   -16.0160    -4.2360 hc         1 VA0       0.041033
     79 H34          8.8260   -17.6630    -4.6540 hc         1 VA0       0.041033
     80 H35          7.3370   -17.3600    -3.7380 hc         1 VA0       0.041033
     81 H36         10.4700   -13.1940    -2.1570 hc         1 VA0       0.042700
     82 H37         10.9280   -14.4680    -1.0070 hc         1 VA0       0.042700
     83 H38         10.8140   -14.8040    -2.7490 hc         1 VA0       0.042700
     84 H39          4.9890   -17.9700     0.6680 hc         1 VA0       0.071033
     85 H40          4.9220   -16.3000    -0.0410 hc         1 VA0       0.071033
     86 H41          4.9570   -17.6240    -1.1140 hc         1 VA0       0.071033
     87 H42          8.2430   -14.1480     2.6960 h1         1 VA0       0.031700
     88 H43          7.6520   -12.7180     1.8230 h1         1 VA0       0.031700
     89 H44          6.8090   -14.2780     1.6560 h1         1 VA0       0.031700
     90 H45         14.5850   -14.5900     2.1140 ho         1 VA0       0.521000
     91 H46          9.3140   -18.4670    -0.0780 ho         1 VA0       0.457000
     92 H47         11.4220   -18.9500    -1.7130 ho         1 VA0       0.461000
     93 H2          15.2550   -17.0330    -0.9370 hn         1 VA0       0.347500
     94 C35          6.8500   -17.2140    -0.2030 c          1 VA0       0.589100
     95 C37          7.7940   -13.8050     1.7550 c3         1 VA0       0.145900
@<TRIPOS>BOND
     1     1     2 1   
     2     1     9 1   
     3     1    37 2   
     4     2     3 2   
     5     2    36 1   
     6     3     4 1   
     7     3    49 1   
     8     4    10 1   
     9     4    48 2   
    10     5     6 ar  
    11     5    10 ar  
    12     5    11 1   
    13     6     7 ar  
    14     6    39 1   
    15     7     8 ar  
    16     7    14 1   
    17     8     9 ar  
    18     8    38 1   
    19     9    10 ar  
    20    11    12 1   
    21    11    40 2   
    22    12    13 1   
    23    12    39 1   
    24    12    41 1   
    25    13    50 1   
    26    13    51 1   
    27    13    52 1   
    28    14    53 1   
    29    14    54 1   
    30    14    55 1   
    31    15    16 1   
    32    15    36 1   
    33    15    47 2   
    34    16    17 2   
    35    16    30 1   
    36    17    18 1   
    37    17    56 1   
    38    18    19 2   
    39    18    57 1   
    40    19    20 1   
    41    19    58 1   
    42    20    21 1   
    43    20    31 1   
    44    20    59 1   
    45    21    22 1   
    46    21    46 1   
    47    21    60 1   
    48    22    23 1   
    49    22    32 1   
    50    22    61 1   
    51    23    24 1   
    52    23    45 1   
    53    23    62 1   
    54    24    25 1   
    55    24    33 1   
    56    24    63 1   
    57    25    26 1   
    58    25    43 1   
    59    25    64 1   
    60    26    27 1   
    61    26    34 1   
    62    26    65 1   
    63    27    28 1   
    64    27    42 1   
    65    27    66 1   
    66    28    29 2   
    67    28    67 1   
    68    29    41 1   
    69    29    68 1   
    70    30    69 1   
    71    30    70 1   
    72    30    71 1   
    73    31    72 1   
    74    31    73 1   
    75    31    74 1   
    76    32    75 1   
    77    32    76 1   
    78    32    77 1   
    79    33    78 1   
    80    33    79 1   
    81    33    80 1   
    82    34    81 1   
    83    34    82 1   
    84    34    83 1   
    85    35    84 1   
    86    35    85 1   
    87    35    86 1   
    88    35    94 1   
    89    36    93 1   
    90    38    90 1   
    91    42    95 1   
    92    43    94 1   
    93    44    94 2   
    94    45    91 1   
    95    46    92 1   
    96    87    95 1   
    97    88    95 1   
    98    89    95 1   
@<TRIPOS>SUBSTRUCTURE
     1 VA0         1 TEMP              0 ****  ****    0 ROOT
