@<TRIPOS>MOLECULE
VA4
   44    46     1     0     0
SMALL
bcc


@<TRIPOS>ATOM
      1 N1          -4.7160    -3.4590    -0.4970 nb         1 VA4      -0.850000
      2 C2          -4.6430    -2.6300    -1.5360 ca         1 VA4       0.670900
      3 N3          -4.1860    -1.3910    -1.5670 nb         1 VA4      -0.725000
      4 C4          -3.7460    -0.9950    -0.3740 ca         1 VA4       0.461800
      5 C5          -3.7680    -1.7380     0.7960 ca         1 VA4      -0.174200
      6 C6          -4.2810    -3.0400     0.6970 ca         1 VA4       0.740200
      7 N6          -4.3840    -3.8580     1.7570 nv         1 VA4      -0.959500
      8 N7          -3.2340    -1.0250     1.8350 nc         1 VA4      -0.580100
      9 C8          -2.8910     0.1130     1.3080 cd         1 VA4       0.489700
     10 N9          -3.2080     0.2070    -0.0210 na         1 VA4      -0.248000
     11 PA           0.5820     2.0610     1.8010 p5         1 VA4       1.461800
     12 PB           1.7580    -0.2910     0.5000 p5         1 VA4       1.352600
     13 PG           1.9760    -2.4980    -1.7430 p5         1 VA4       1.190700
     14 C1          -3.0580     1.3560    -0.8830 c5         1 VA4       0.275800
     15 O1A         -0.5040     1.7800     2.8000 o          1 VA4      -0.871500
     16 O2B          1.8160    -1.0180     1.8110 o          1 VA4      -0.861500
     17 O1G          2.6790    -3.3260    -0.6690 o          1 VA4      -0.953167
     18 C7          -3.9310     2.5360    -0.4670 c5         1 VA4      -0.176400
     19 O2A          1.9610     2.4060     2.2780 o          1 VA4      -0.871500
     20 O1B          3.0000     0.3100    -0.0950 o          1 VA4      -0.861500
     21 O2G          0.9760    -3.2960    -2.5820 o          1 VA4      -0.953167
     22 C3          -3.1300     3.7170    -0.9900 c5         1 VA4       0.091100
     23 O3          -3.2910     3.8930    -2.3800 oh         1 VA4      -0.584800
     24 O3A          0.6280     0.9330     0.6390 os         1 VA4      -0.710800
     25 C3B          0.9100    -1.2540    -0.8050 c3         1 VA4      -0.192700
     26 CL1         -0.5160    -2.0850    -0.0560 cl         1 VA4      -0.353400
     27 O3G          2.8950    -1.6110    -2.5850 o          1 VA4      -0.953167
     28 C9          -1.6980     3.2370    -0.7330 c5         1 VA4       0.117100
     29 O4          -1.7320     1.8210    -0.8570 os         1 VA4      -0.295600
     30 C10         -1.2200     3.6790     0.6360 c3         1 VA4       0.220400
     31 O5           0.1200     3.3460     0.8640 os         1 VA4      -0.550200
     32 H1          -5.0290    -3.0200    -2.4720 h5         1 VA4       0.007100
     33 H2          -4.5520    -4.8350     1.5800 hn         1 VA4       0.417300
     34 H3          -3.8370    -3.6510     2.5760 hn         1 VA4       0.417300
     35 H4          -2.3830     0.9100     1.8370 h5         1 VA4       0.135800
     36 H5          -3.3230     1.0100    -1.8850 h2         1 VA4       0.085700
     37 H8          -4.9420     2.4750    -0.8720 hc         1 VA4       0.045200
     38 H9          -4.0160     2.5860     0.6210 hc         1 VA4       0.045200
     39 H12         -3.3530     4.6430    -0.4440 h1         1 VA4       0.021700
     40 H13         -4.2230     4.0560    -2.5540 ho         1 VA4       0.366000
     41 H14          0.4640    -0.5570    -1.5180 h1         1 VA4       0.039700
     42 H15         -1.0180     3.6330    -1.4950 h1         1 VA4       0.093700
     43 H16         -1.3010     4.7720     0.6620 h1         1 VA4      -0.011300
     44 H17         -1.8730     3.2860     1.4240 h1         1 VA4      -0.011300
@<TRIPOS>BOND
     1     1     2 ar  
     2     1     6 ar  
     3     2     3 ar  
     4     2    32 1   
     5     3     4 ar  
     6     4     5 ar  
     7     4    10 1   
     8     5     6 ar  
     9     5     8 1   
    10     6     7 1   
    11     7    33 1   
    12     7    34 1   
    13     8     9 2   
    14     9    10 1   
    15     9    35 1   
    16    10    14 1   
    17    11    15 1   
    18    11    19 1   
    19    11    24 1   
    20    11    31 1   
    21    12    16 1   
    22    12    20 1   
    23    12    24 1   
    24    12    25 1   
    25    13    17 1   
    26    13    21 1   
    27    13    25 1   
    28    13    27 1   
    29    14    18 1   
    30    14    29 1   
    31    14    36 1   
    32    18    22 1   
    33    18    37 1   
    34    18    38 1   
    35    22    23 1   
    36    22    28 1   
    37    22    39 1   
    38    23    40 1   
    39    25    26 1   
    40    25    41 1   
    41    28    29 1   
    42    28    30 1   
    43    28    42 1   
    44    30    31 1   
    45    30    43 1   
    46    30    44 1   
@<TRIPOS>SUBSTRUCTURE
     1 VA4         1 TEMP              0 ****  ****    0 ROOT
