@<TRIPOS>MOLECULE
VA4
   44    46     1     0     0
SMALL
No Charge or Current Charge


@<TRIPOS>ATOM
      1 N1          -7.3330    -1.6380     1.2760 nb         1 VA4      -0.324000
      2 C2          -7.1730    -0.8850     0.1630 ca         1 VA4       0.144900
      3 N3          -6.0010    -0.4710    -0.3730 nb         1 VA4      -0.199000
      4 C4          -4.8830    -0.8530     0.2790 ca         1 VA4       0.133500
      5 C5          -4.9350    -1.6220     1.4150 ca         1 VA4      -0.043600
      6 C6          -6.2050    -2.0050     1.9040 ca         1 VA4       0.411900
      7 N6          -6.3730    -2.7710     3.0180 nv         1 VA4      -1.069900
      8 N7          -3.6720    -1.9220     1.9130 nc         1 VA4      -0.580100
      9 C8          -2.8660    -1.2950     1.0300 cd         1 VA4       0.489700
     10 N9          -3.5580    -0.6140     0.0080 na         1 VA4      -0.277300
     11 PA           0.5760     1.4320     1.7320 p5         1 VA4       1.461800
     12 PB           2.6390     0.2570     0.5660 p5         1 VA4       1.510400
     13 PG           3.5720     0.9370    -2.0450 p5         1 VA4       1.348500
     14 C1          -2.9700     0.0860    -1.1310 c5         1 VA4       0.328300
     15 O1A         -0.3020     0.3260     2.2130 o          1 VA4      -0.871500
     16 O2B          2.4140    -0.9320     1.4520 o          1 VA4      -0.861500
     17 O1G          5.0480     0.8930    -1.8210 o          1 VA4      -0.953167
     18 C7          -3.6280     1.4480    -1.5120 c5         1 VA4      -0.176400
     19 O2A          1.4660     1.9550     2.8100 o          1 VA4      -0.871500
     20 O1B          3.8330     1.0460     1.0090 o          1 VA4      -0.861500
     21 O2G          3.3490     0.6360    -3.4910 o          1 VA4      -0.953167
     22 C3          -2.4100     2.2790    -1.9730 c5         1 VA4       0.114300
     23 O3          -2.0450     1.9610    -3.3190 oh         1 VA4      -0.707000
     24 O3A          1.3230     1.1150     0.3830 os         1 VA4      -0.710800
     25 C3B          2.7640    -0.4170    -1.1340 c3         1 VA4      -0.431700
     26 Cl1          3.4510    -2.1450    -1.3710 cl         1 VA4      -0.430000
     27 O3G          3.0290     2.2950    -1.7620 o          1 VA4      -0.953167
     28 C9          -1.3590     1.8090    -0.9200 c5         1 VA4       0.140300
     29 O4          -1.5750     0.3750    -0.8750 os         1 VA4      -0.342000
     30 C10         -1.5700     2.4510     0.4920 c3         1 VA4       0.243600
     31 O5          -0.3280     2.6540     1.1880 os         1 VA4      -0.573400
     32 H1          -8.0810    -0.5810    -0.3550 h5         1 VA4       0.007100
     33 H2          -7.2710    -3.2240     3.1610 hn         1 VA4       0.472500
     34 H3          -5.5510    -3.2340     3.3990 hn         1 VA4       0.472500
     35 H4          -1.7820    -1.3150     1.0500 h5         1 VA4       0.135800
     36 H5          -3.0340    -0.6090    -1.9780 h2         1 VA4       0.085700
     37 H8          -4.3920     1.3380    -2.2900 hc         1 VA4       0.045200
     38 H9          -4.1180     1.9110    -0.6490 hc         1 VA4       0.045200
     39 H12         -2.6080     3.3570    -1.8920 h1         1 VA4       0.021700
     40 H13         -2.7480     2.3270    -3.9020 ho         1 VA4       0.465000
     41 H14          1.7350    -0.4540    -1.5060 h1         1 VA4       0.039700
     42 H15         -0.3410     2.0260    -1.2680 h1         1 VA4       0.093700
     43 H16         -2.0550     3.4270     0.3590 h1         1 VA4      -0.011300
     44 H17         -2.2560     1.8360     1.0890 h1         1 VA4      -0.011300
@<TRIPOS>BOND
     1     1     2 ar  
     2     1     6 ar  
     3     2     3 ar  
     4     2    32 1   
     5     3     4 ar  
     6     4     5 ar  
     7     4    10 1   
     8     5     6 ar  
     9     5     8 1   
    10     6     7 1   
    11     7    33 1   
    12     7    34 1   
    13     8     9 2   
    14     9    10 1   
    15     9    35 1   
    16    10    14 1   
    17    11    15 1   
    18    11    19 1   
    19    11    24 1   
    20    11    31 1   
    21    12    16 1   
    22    12    20 1   
    23    12    24 1   
    24    12    25 1   
    25    13    17 1   
    26    13    21 1   
    27    13    25 1   
    28    13    27 1   
    29    14    18 1   
    30    14    29 1   
    31    14    36 1   
    32    18    22 1   
    33    18    37 1   
    34    18    38 1   
    35    22    23 1   
    36    22    28 1   
    37    22    39 1   
    38    23    40 1   
    39    25    26 1   
    40    25    41 1   
    41    28    29 1   
    42    28    30 1   
    43    28    42 1   
    44    30    31 1   
    45    30    43 1   
    46    30    44 1   
@<TRIPOS>SUBSTRUCTURE
     1 VA4         1 TEMP              0 ****  ****    0 ROOT
