@<TRIPOS>MOLECULE
VA5
   44    46     1     0     0
SMALL
abcg2


@<TRIPOS>ATOM
      1 PA           1.2990    -2.0890    -0.5460 p5         1 VA5       1.459800
      2 O1A          0.9440    -2.1140    -2.0010 o          1 VA5      -0.868500
      3 O2A          2.0080    -3.2580     0.0670 o          1 VA5      -0.868500
      4 O3A          2.0120    -0.6800    -0.1540 os         1 VA5      -0.692800
      5 O5          -0.0680    -1.7700     0.3300 os         1 VA5      -0.554400
      6 PB           3.6570    -0.4570    -0.0250 p5         1 VA5       1.490400
      7 O2B          4.3220    -1.1080    -1.2010 o          1 VA5      -0.829500
      8 O1B          4.0710    -0.7900     1.3750 o          1 VA5      -0.829500
      9 C3B          3.6510     1.3790    -0.2740 c3         1 VA5      -0.070000
     10 F3B          2.8520     1.6600    -1.3740 f          1 VA5      -0.253000
     11 CL1          2.7910     2.1150     1.1420 cl         1 VA5      -0.406000
     12 PG           5.3320     2.2210    -0.5170 p5         1 VA5       1.280500
     13 O1G          5.0370     3.7100    -0.3620 o          1 VA5      -0.894500
     14 O2G          6.1840     1.6130     0.5920 o          1 VA5      -0.894500
     15 O3G          5.7180     1.8060    -1.9320 o          1 VA5      -0.894500
     16 C5          -1.0480    -2.7820     0.3780 c3         1 VA5       0.238600
     17 C4          -2.2920    -2.2110     1.0170 c5         1 VA5       0.165300
     18 O4          -2.9010    -1.2540     0.1480 os         1 VA5      -0.391000
     19 C1          -4.3000    -1.3210     0.2540 c5         1 VA5       0.312300
     20 N9          -4.8330     0.0040     0.4790 na         1 VA5      -0.285300
     21 C9          -5.6960     0.6850    -0.3300 ca         1 VA5       0.137500
     22 N3          -6.2690     0.2750    -1.4590 nb         1 VA5      -0.226000
     23 C2          -7.0590     1.2020    -1.9720 ca         1 VA5       0.092900
     24 N1          -7.3210     2.4190    -1.5030 nb         1 VA5      -0.312000
     25 C6          -6.7360     2.8180    -0.3670 ca         1 VA5       0.378900
     26 N6          -6.9980     4.0350     0.1110 nv         1 VA5      -1.094900
     27 C7          -5.8670     1.9190     0.2780 ca         1 VA5      -0.097600
     28 N7          -5.1240     2.0040     1.4270 nc         1 VA5      -0.588100
     29 C8          -4.5260     0.8520     1.5090 cd         1 VA5       0.400700
     30 C10         -4.5990    -2.3030     1.3850 c5         1 VA5      -0.170400
     31 C3          -3.3880    -3.2220     1.3310 c5         1 VA5       0.121300
     32 O3          -3.4690    -4.1500     0.2750 oh         1 VA5      -0.680000
     33 H5          -1.2820    -3.1620    -0.6220 h1         1 VA5       0.020200
     34 H6          -0.7080    -3.6320     0.9830 h1         1 VA5       0.020200
     35 H7          -2.0060    -1.7220     1.9580 h1         1 VA5       0.060700
     36 H8          -4.7360    -1.6570    -0.6910 h2         1 VA5       0.092700
     37 H9          -7.5640     0.9410    -2.8960 h5         1 VA5       0.010100
     38 H10         -7.6050     4.6590    -0.3910 hn         1 VA5       0.483000
     39 H11         -6.5360     4.3790     0.9350 hn         1 VA5       0.483000
     40 H12         -3.8480     0.5650     2.2990 h5         1 VA5       0.069800
     41 H13         -4.6300    -1.7910     2.3490 hc         1 VA5       0.041700
     42 H14         -5.5510    -2.8150     1.2510 hc         1 VA5       0.041700
     43 H15         -3.2010    -3.7140     2.2920 h1         1 VA5       0.033700
     44 H16         -4.2050    -4.7450     0.4510 ho         1 VA5       0.465000
@<TRIPOS>BOND
     1     1     2 1   
     2     1     3 1   
     3     1     4 1   
     4     1     5 1   
     5     4     6 1   
     6     5    16 1   
     7     6     7 1   
     8     6     8 1   
     9     6     9 1   
    10     9    10 1   
    11     9    11 1   
    12     9    12 1   
    13    12    13 1   
    14    12    14 1   
    15    12    15 1   
    16    16    17 1   
    17    16    33 1   
    18    16    34 1   
    19    17    18 1   
    20    17    31 1   
    21    17    35 1   
    22    18    19 1   
    23    19    20 1   
    24    19    30 1   
    25    19    36 1   
    26    20    21 1   
    27    20    29 1   
    28    21    22 ar  
    29    21    27 ar  
    30    22    23 ar  
    31    23    24 ar  
    32    23    37 1   
    33    24    25 ar  
    34    25    26 1   
    35    25    27 ar  
    36    26    38 1   
    37    26    39 1   
    38    27    28 1   
    39    28    29 2   
    40    29    40 1   
    41    30    31 1   
    42    30    41 1   
    43    30    42 1   
    44    31    32 1   
    45    31    43 1   
    46    32    44 1   
@<TRIPOS>SUBSTRUCTURE
     1 VA5         1 TEMP              0 ****  ****    0 ROOT
