@<TRIPOS>MOLECULE
VA5
   44    46     1     0     0
SMALL
No Charge or Current Charge


@<TRIPOS>ATOM
      1 PA           1.4340    -1.2150     1.9640 p5         1 VA5       1.459800
      2 O1A          1.9270    -2.6230     2.0230 o          1 VA5      -0.868500
      3 O2A          1.7000    -0.4580     3.2230 o          1 VA5      -0.868500
      4 O3A          1.8630    -0.4580     0.6540 os         1 VA5      -0.692800
      5 O5          -0.1490    -1.1970     1.6760 os         1 VA5      -0.554400
      6 PB           3.3180     0.1760     0.6920 p5         1 VA5       1.490400
      7 O2B          4.3080    -0.7180     1.3760 o          1 VA5      -0.829500
      8 O1B          3.2290     1.5380     1.3180 o          1 VA5      -0.829500
      9 C3B          3.5100     0.3160    -1.1670 c3         1 VA5      -0.070000
     10 F3B          3.0880    -0.8270    -1.8010 f          1 VA5      -0.253000
     11 Cl1          2.5840     1.7290    -1.9680 cl         1 VA5      -0.406000
     12 PG           5.3710     0.4320    -1.2410 p5         1 VA5       1.280500
     13 O1G          5.7280     0.8840    -2.6230 o          1 VA5      -0.894500
     14 O2G          5.9380     1.4250    -0.2800 o          1 VA5      -0.894500
     15 O3G          6.0180    -0.9050    -1.0600 o          1 VA5      -0.894500
     16 C5          -0.6750    -2.0870     0.6830 c3         1 VA5       0.238600
     17 C4          -2.1950    -1.8250     0.5370 c5         1 VA5       0.165300
     18 O4          -2.4550    -0.6410    -0.2490 os         1 VA5      -0.391000
     19 C1          -3.8380    -0.6760    -0.6630 c5         1 VA5       0.312300
     20 N9          -4.6040     0.3320     0.0630 na         1 VA5      -0.285300
     21 C9          -5.8940     0.7390    -0.1630 ca         1 VA5       0.137500
     22 N3          -6.7900     0.3480    -1.0930 nb         1 VA5      -0.226000
     23 C2          -7.9980     0.9580    -1.0460 ca         1 VA5       0.092900
     24 N1          -8.3870     1.9100    -0.1660 nb         1 VA5      -0.312000
     25 C6          -7.4760     2.2770     0.7490 ca         1 VA5       0.378900
     26 N6          -7.8700     3.2370     1.6300 nv         1 VA5      -1.094900
     27 C7          -6.1880     1.6980     0.7750 ca         1 VA5      -0.097600
     28 N7          -5.1200     1.9540     1.6280 nc         1 VA5      -0.588100
     29 C8          -4.1820     1.1060     1.1610 cd         1 VA5       0.400700
     30 C10         -4.3140    -2.1500    -0.4480 c5         1 VA5      -0.170400
     31 C3          -2.9890    -2.9220    -0.2320 c5         1 VA5       0.121300
     32 O3          -2.3970    -3.3010    -1.4790 oh         1 VA5      -0.680000
     33 H5          -0.1820    -1.9410    -0.2870 h1         1 VA5       0.020200
     34 H6          -0.5290    -3.1300     0.9920 h1         1 VA5       0.020200
     35 H7          -2.6230    -1.6850     1.5400 h1         1 VA5       0.060700
     36 H8          -3.9010    -0.4020    -1.7240 h2         1 VA5       0.092700
     37 H9          -8.7290     0.6520    -1.7910 h5         1 VA5       0.010100
     38 H10         -8.6840     3.8000     1.3990 hn         1 VA5       0.483000
     39 H11         -7.1460     3.6780     2.1940 hn         1 VA5       0.483000
     40 H12         -3.1830     0.9990     1.5690 h5         1 VA5       0.069800
     41 H13         -4.9540    -2.2290     0.4390 hc         1 VA5       0.041700
     42 H14         -4.8990    -2.5260    -1.2950 hc         1 VA5       0.041700
     43 H15         -3.1450    -3.8120     0.3940 h1         1 VA5       0.033700
     44 H16         -3.0070    -3.9460    -1.9030 ho         1 VA5       0.465000
@<TRIPOS>BOND
     1     1     2 1   
     2     1     3 1   
     3     1     4 1   
     4     1     5 1   
     5     4     6 1   
     6     5    16 1   
     7     6     7 1   
     8     6     8 1   
     9     6     9 1   
    10     9    10 1   
    11     9    11 1   
    12     9    12 1   
    13    12    13 1   
    14    12    14 1   
    15    12    15 1   
    16    16    17 1   
    17    16    33 1   
    18    16    34 1   
    19    17    18 1   
    20    17    31 1   
    21    17    35 1   
    22    18    19 1   
    23    19    20 1   
    24    19    30 1   
    25    19    36 1   
    26    20    21 1   
    27    20    29 1   
    28    21    22 ar  
    29    21    27 ar  
    30    22    23 ar  
    31    23    24 ar  
    32    23    37 1   
    33    24    25 ar  
    34    25    26 1   
    35    25    27 ar  
    36    26    38 1   
    37    26    39 1   
    38    27    28 1   
    39    28    29 2   
    40    29    40 1   
    41    30    31 1   
    42    30    41 1   
    43    30    42 1   
    44    31    32 1   
    45    31    43 1   
    46    32    44 1   
@<TRIPOS>SUBSTRUCTURE
     1 VA5         1 TEMP              0 ****  ****    0 ROOT
