@<TRIPOS>MOLECULE
VA6
   44    46     1     0     0
SMALL
abcg2


@<TRIPOS>ATOM
      1 N1          -7.1790     2.5670    -1.5890 nb         1 VA6      -0.307000
      2 C2          -6.8080     1.4460    -2.2030 ca         1 VA6       0.078900
      3 N3          -6.0330     0.4770    -1.7480 nb         1 VA6      -0.230000
      4 C4          -5.6060     0.7280    -0.5120 ca         1 VA6       0.141500
      5 C5          -5.9040     1.8460     0.2510 ca         1 VA6      -0.101600
      6 C6          -6.7420     2.8040    -0.3470 ca         1 VA6       0.365900
      7 N6          -7.1130     3.9240     0.2740 nv         1 VA6      -1.097900
      8 N7          -5.2900     1.7790     1.4750 nc         1 VA6      -0.591100
      9 C8          -4.6460     0.6500     1.4510 cd         1 VA6       0.386700
     10 N9          -4.7990    -0.0400     0.2790 na         1 VA6      -0.288300
     11 PA           1.3640    -1.6900    -0.8800 p5         1 VA6       1.460800
     12 PB           3.3310     0.4640    -0.9330 p5         1 VA6       1.472400
     13 PG           6.0050     1.6600     0.3380 p5         1 VA6       1.268500
     14 C1          -4.1750    -1.2930    -0.0830 c5         1 VA6       0.312300
     15 O1A          0.9300    -1.3430    -2.2710 o          1 VA6      -0.866500
     16 O2B          2.6740     1.7040    -1.4620 o          1 VA6      -0.819000
     17 O1G          6.3430     2.2170     1.7200 o          1 VA6      -0.891167
     18 C7          -4.5080    -2.4410     0.8620 c5         1 VA6      -0.169400
     19 O2A          2.0600    -2.9910    -0.6190 o          1 VA6      -0.866500
     20 O1B          4.1370    -0.4290    -1.8290 o          1 VA6      -0.819000
     21 O2G          6.8940     0.5030    -0.1050 o          1 VA6      -0.891167
     22 C3          -3.2200    -3.2570     0.8400 c5         1 VA6       0.117300
     23 O3          -2.9790    -4.0290     1.9820 oh         1 VA6      -0.694000
     24 O3A          2.1470    -0.4450    -0.1840 os         1 VA6      -0.695800
     25 C3B          4.3130     0.8690     0.5810 c3         1 VA6      -0.362000
     26 F1B          3.5160     1.6870     1.3730 f          1 VA6      -0.147500
     27 F2B          4.4600    -0.2900     1.3290 f          1 VA6      -0.147500
     28 O3G          5.7430     2.7190    -0.7320 o          1 VA6      -0.891167
     29 C9          -2.1680    -2.1550     0.7280 c5         1 VA6       0.158300
     30 O4          -2.7750    -1.1450    -0.0680 os         1 VA6      -0.393000
     31 C10         -0.8820    -2.6180     0.0900 c3         1 VA6       0.241600
     32 O5           0.0640    -1.5750     0.1380 os         1 VA6      -0.549400
     33 H1          -7.1950     1.3150    -3.2080 h5         1 VA6       0.008100
     34 H2          -7.6940     4.5980    -0.1940 hn         1 VA6       0.479500
     35 H3          -6.7810     4.1390     1.1980 hn         1 VA6       0.479500
     36 H4          -4.0380     0.2710     2.2580 h5         1 VA6       0.064800
     37 H5          -4.5130    -1.5040    -1.1010 h2         1 VA6       0.088700
     38 H8          -4.6890    -2.0820     1.8780 hc         1 VA6       0.043700
     39 H9          -5.3890    -2.9900     0.5350 hc         1 VA6       0.043700
     40 H12         -3.1930    -3.8740    -0.0700 h1         1 VA6       0.039700
     41 H13         -3.5290    -4.8170     1.9420 ho         1 VA6       0.473000
     42 H14         -1.9580    -1.7640     1.7350 h1         1 VA6       0.069700
     43 H15         -0.5270    -3.5010     0.6340 h1         1 VA6       0.010200
     44 H16         -1.0940    -2.9330    -0.9400 h1         1 VA6       0.010200
@<TRIPOS>BOND
     1     1     2 ar  
     2     1     6 ar  
     3     2     3 ar  
     4     2    33 1   
     5     3     4 ar  
     6     4     5 ar  
     7     4    10 1   
     8     5     6 ar  
     9     5     8 1   
    10     6     7 1   
    11     7    34 1   
    12     7    35 1   
    13     8     9 2   
    14     9    10 1   
    15     9    36 1   
    16    10    14 1   
    17    11    15 1   
    18    11    19 1   
    19    11    24 1   
    20    11    32 1   
    21    12    16 1   
    22    12    20 1   
    23    12    24 1   
    24    12    25 1   
    25    13    17 1   
    26    13    21 1   
    27    13    25 1   
    28    13    28 1   
    29    14    18 1   
    30    14    30 1   
    31    14    37 1   
    32    18    22 1   
    33    18    38 1   
    34    18    39 1   
    35    22    23 1   
    36    22    29 1   
    37    22    40 1   
    38    23    41 1   
    39    25    26 1   
    40    25    27 1   
    41    29    30 1   
    42    29    31 1   
    43    29    42 1   
    44    31    32 1   
    45    31    43 1   
    46    31    44 1   
@<TRIPOS>SUBSTRUCTURE
     1 VA6         1 TEMP              0 ****  ****    0 ROOT
