@<TRIPOS>MOLECULE
VA6
   44    46     1     0     0
SMALL
No Charge or Current Charge


@<TRIPOS>ATOM
      1 N1          -6.6550     2.1690     1.4880 nb         1 VA6      -0.307000
      2 C2          -6.7290     0.8180     1.4440 ca         1 VA6       0.078900
      3 N3          -5.8390    -0.0200     0.8650 nb         1 VA6      -0.230000
      4 C4          -4.7740     0.5630     0.2760 ca         1 VA6       0.141500
      5 C5          -4.6050     1.9260     0.2610 ca         1 VA6      -0.101600
      6 C6          -5.5850     2.7210     0.8940 ca         1 VA6       0.365900
      7 N6          -5.5140     4.0810     0.9360 nv         1 VA6      -1.097900
      8 N7          -3.4490     2.3130    -0.4080 nc         1 VA6      -0.591100
      9 C8          -2.9310     1.1250    -0.7780 cd         1 VA6       0.386700
     10 N9          -3.7070     0.0160    -0.3890 na         1 VA6      -0.288300
     11 PA           1.7360    -1.3520    -1.9400 p5         1 VA6       1.460800
     12 PB           1.8700     0.9690    -0.6640 p5         1 VA6       1.472400
     13 PG           1.9570     0.7570     2.2380 p5         1 VA6       1.268500
     14 C1          -3.4530    -1.3920    -0.6720 c5         1 VA6       0.312300
     15 O1A          2.3630    -0.6710    -3.1130 o          1 VA6      -0.866500
     16 O2B          1.5170     1.9570    -1.7390 o          1 VA6      -0.819000
     17 O1G          1.1560     0.9810     3.4790 o          1 VA6      -0.891167
     18 C7          -3.2740    -2.3070     0.5770 c5         1 VA6      -0.169400
     19 O2A          2.6640    -2.3360    -1.3090 o          1 VA6      -0.866500
     20 O1B          3.3520     0.7990    -0.5270 o          1 VA6      -0.819000
     21 O2G          2.1270    -0.7110     2.0350 o          1 VA6      -0.891167
     22 C3          -2.2690    -3.3460     0.0430 c5         1 VA6       0.117300
     23 O3          -1.6470    -4.0770     1.1000 oh         1 VA6      -0.694000
     24 O3A          1.0620    -0.3770    -0.9010 os         1 VA6      -0.695800
     25 C3B          1.0440     1.5640     0.8710 c3         1 VA6      -0.362000
     26 F1B          1.1120     2.9230     0.9770 f          1 VA6      -0.147500
     27 F2B         -0.2770     1.2260     0.8910 f          1 VA6      -0.147500
     28 O3G          3.2800     1.4230     2.4420 o          1 VA6      -0.891167
     29 C9          -1.3160    -2.3710    -0.7010 c5         1 VA6       0.158300
     30 O4          -2.2420    -1.5450    -1.4470 os         1 VA6      -0.393000
     31 C10         -0.2980    -3.0630    -1.6510 c3         1 VA6       0.241600
     32 O5           0.3990    -2.0950    -2.4570 os         1 VA6      -0.549400
     33 H1          -7.5900     0.3570     1.9240 h5         1 VA6       0.008100
     34 H2          -6.3550     4.6040     1.1630 hn         1 VA6       0.479500
     35 H3          -4.8390     4.5310     0.3220 hn         1 VA6       0.479500
     36 H4          -2.0100     0.9940    -1.3350 h5         1 VA6       0.064800
     37 H5          -4.3040    -1.7380    -1.2730 h2         1 VA6       0.088700
     38 H8          -2.8680    -1.7460     1.4270 hc         1 VA6       0.043700
     39 H9          -4.2200    -2.7570     0.9000 hc         1 VA6       0.043700
     40 H12         -2.7520    -4.0320    -0.6680 h1         1 VA6       0.039700
     41 H13         -2.3610    -4.5650     1.5680 ho         1 VA6       0.473000
     42 H14         -0.7780    -1.7420     0.0190 h1         1 VA6       0.069700
     43 H15          0.4030    -3.6590    -1.0530 h1         1 VA6       0.010200
     44 H16         -0.8460    -3.7570    -2.3020 h1         1 VA6       0.010200
@<TRIPOS>BOND
     1     1     2 ar  
     2     1     6 ar  
     3     2     3 ar  
     4     2    33 1   
     5     3     4 ar  
     6     4     5 ar  
     7     4    10 1   
     8     5     6 ar  
     9     5     8 1   
    10     6     7 1   
    11     7    34 1   
    12     7    35 1   
    13     8     9 2   
    14     9    10 1   
    15     9    36 1   
    16    10    14 1   
    17    11    15 1   
    18    11    19 1   
    19    11    24 1   
    20    11    32 1   
    21    12    16 1   
    22    12    20 1   
    23    12    24 1   
    24    12    25 1   
    25    13    17 1   
    26    13    21 1   
    27    13    25 1   
    28    13    28 1   
    29    14    18 1   
    30    14    30 1   
    31    14    37 1   
    32    18    22 1   
    33    18    38 1   
    34    18    39 1   
    35    22    23 1   
    36    22    29 1   
    37    22    40 1   
    38    23    41 1   
    39    25    26 1   
    40    25    27 1   
    41    29    30 1   
    42    29    31 1   
    43    29    42 1   
    44    31    32 1   
    45    31    43 1   
    46    31    44 1   
@<TRIPOS>SUBSTRUCTURE
     1 VA6         1 TEMP              0 ****  ****    0 ROOT
