@<TRIPOS>MOLECULE
VA7
   44    46     1     0     0
SMALL
abcg2


@<TRIPOS>ATOM
      1 N1          67.7620     8.5610     7.4070 nb         1 VA7      -0.343000
      2 C2          66.5550     8.2380     6.9500 ca         1 VA7       0.124900
      3 N3          65.6040     7.5490     7.5540 nb         1 VA7      -0.204000
      4 C4          65.9750     7.1620     8.7740 ca         1 VA7       0.086500
      5 C5          67.1950     7.4170     9.3830 ca         1 VA7      -0.074600
      6 C6          68.1210     8.1650     8.6340 ca         1 VA7       0.420900
      7 N6          69.3340     8.4830     9.0920 nv         1 VA7      -1.087900
      8 N7          67.2290     6.8790    10.6430 nc         1 VA7      -0.597100
      9 C8          66.0640     6.3160    10.7870 cd         1 VA7       0.495700
     10 N9          65.2570     6.4490     9.6890 na         1 VA7      -0.274300
     11 PA          64.4310     4.5340    14.6710 p5         1 VA7       1.483800
     12 PB          63.3000     1.7640    14.0960 p5         1 VA7       1.543400
     13 PG          62.9440    -1.1920    15.4280 p5         1 VA7       1.325500
     14 C1          63.8920     5.9680     9.5140 c5         1 VA7       0.310300
     15 O1A         63.4040     4.8570    15.7080 o          1 VA7      -0.858000
     16 O2B         63.4860     1.2840    12.6710 o          1 VA7      -0.845500
     17 O1G         61.6290    -0.7420    16.0480 o          1 VA7      -0.928500
     18 C7          63.7910     4.4680     9.2550 c5         1 VA7      -0.140400
     19 O2A         65.8670     4.9170    14.8310 o          1 VA7      -0.858000
     20 O1B         61.9500     2.2240    14.5480 o          1 VA7      -0.845500
     21 O2G         63.8320    -2.0330    16.3350 o          1 VA7      -0.928500
     22 C3          63.4920     3.8880    10.6330 c5         1 VA7       0.189300
     23 O3          62.8230     2.6710    10.5660 oh         1 VA7      -0.806000
     24 O3A         64.4390     2.9310    14.3170 os         1 VA7      -0.731800
     25 C3B         63.9480     0.4610    15.2490 c3         1 VA7      -0.127000
     26 CL1         65.6300     0.0660    14.7180 cl         1 VA7      -0.380500
     27 CL2         64.0890     1.2290    16.8800 cl         1 VA7      -0.380500
     28 O3G         62.8440    -1.6750    13.9870 o          1 VA7      -0.928500
     29 C9          62.6530     5.0210    11.2430 c5         1 VA7       0.103300
     30 O4          63.1740     6.2260    10.6860 os         1 VA7      -0.462000
     31 C10         62.6530     5.1110    12.7500 c3         1 VA7       0.227600
     32 O5          63.9800     5.1830    13.2250 os         1 VA7      -0.636400
     33 H1          66.3280     8.5900     5.9490 h5         1 VA7       0.009100
     34 H2          69.9350     9.0830     8.5540 hn         1 VA7       0.488500
     35 H3          69.6010     8.2700    10.0380 hn         1 VA7       0.488500
     36 H4          65.7320     5.8080    11.6800 h5         1 VA7       0.156800
     37 H5          63.4910     6.5480     8.6790 h2         1 VA7       0.052700
     38 H8          62.9440     4.2770     8.5920 hc         1 VA7       0.048700
     39 H9          64.6860     4.0640     8.7830 hc         1 VA7       0.048700
     40 H12         64.4310     3.7960    11.1950 h1         1 VA7       0.078700
     41 H13         63.0400     2.1470    11.3820 ho         1 VA7       0.631000
     42 H14         61.6110     4.8900    10.9180 h1         1 VA7       0.031700
     43 H15         62.0890     5.9960    13.0660 h1         1 VA7       0.047200
     44 H16         62.1140     4.2420    13.1360 h1         1 VA7       0.047200
@<TRIPOS>BOND
     1     1     2 ar  
     2     1     6 ar  
     3     2     3 ar  
     4     2    33 1   
     5     3     4 ar  
     6     4     5 ar  
     7     4    10 1   
     8     5     6 ar  
     9     5     8 1   
    10     6     7 1   
    11     7    34 1   
    12     7    35 1   
    13     8     9 2   
    14     9    10 1   
    15     9    36 1   
    16    10    14 1   
    17    11    15 1   
    18    11    19 1   
    19    11    24 1   
    20    11    32 1   
    21    12    16 1   
    22    12    20 1   
    23    12    24 1   
    24    12    25 1   
    25    13    17 1   
    26    13    21 1   
    27    13    25 1   
    28    13    28 1   
    29    14    18 1   
    30    14    30 1   
    31    14    37 1   
    32    18    22 1   
    33    18    38 1   
    34    18    39 1   
    35    22    23 1   
    36    22    29 1   
    37    22    40 1   
    38    23    41 1   
    39    25    26 1   
    40    25    27 1   
    41    29    30 1   
    42    29    31 1   
    43    29    42 1   
    44    31    32 1   
    45    31    43 1   
    46    31    44 1   
@<TRIPOS>SUBSTRUCTURE
     1 VA7         1 TEMP              0 ****  ****    0 ROOT
