@<TRIPOS>MOLECULE
VA7
   44    46     1     0     0
SMALL
No Charge or Current Charge


@<TRIPOS>ATOM
      1 N1          68.2020     7.7000     7.4420 nb         1 VA7      -0.343000
      2 C2          67.0570     7.2710     6.8590 ca         1 VA7       0.124900
      3 N3          65.9210     6.8910     7.4910 nb         1 VA7      -0.204000
      4 C4          65.9460     6.9500     8.8390 ca         1 VA7       0.086500
      5 C5          67.0560     7.3700     9.5270 ca         1 VA7      -0.074600
      6 C6          68.1980     7.7450     8.7820 ca         1 VA7       0.420900
      7 N6          69.3490     8.1810     9.3610 nv         1 VA7      -1.087900
      8 N7          66.8620     7.3630    10.9050 nc         1 VA7      -0.597100
      9 C8          65.5900     6.9160    11.0080 cd         1 VA7       0.495700
     10 N9          64.9820     6.6460     9.7650 na         1 VA7      -0.274300
     11 PA          64.1600     4.5610    14.8210 p5         1 VA7       1.483800
     12 PB          63.5490     1.9210    14.3340 p5         1 VA7       1.543400
     13 PG          63.1870    -0.7530    15.0080 p5         1 VA7       1.325500
     14 C1          63.6240     6.1650     9.5300 c5         1 VA7       0.310300
     15 O1A         63.0030     4.8540    15.7140 o          1 VA7      -0.858000
     16 O2B         63.4640     1.9060    12.8350 o          1 VA7      -0.845500
     17 O1G         62.3270    -0.5790    16.2190 o          1 VA7      -0.928500
     18 C7          63.5160     4.6680     9.1300 c5         1 VA7      -0.140400
     19 O2A         65.3430     5.3600    15.2550 o          1 VA7      -0.858000
     20 O1B         62.2180     2.1180    14.9860 o          1 VA7      -0.845500
     21 O2G         63.8230    -2.1000    15.1530 o          1 VA7      -0.928500
     22 C3          63.5260     4.0070    10.5230 c5         1 VA7       0.189300
     23 O3          63.0930     2.6450    10.4800 oh         1 VA7      -0.806000
     24 O3A         64.5810     3.0460    14.7580 os         1 VA7      -0.731800
     25 C3B         64.5760     0.4900    14.9670 c3         1 VA7      -0.127000
     26 Cl1         65.9910     0.0180    13.8450 cl         1 VA7      -0.380500
     27 Cl2         65.3740     0.7460    16.6360 cl         1 VA7      -0.380500
     28 O3G         62.3540    -0.7870    13.7690 o          1 VA7      -0.928500
     29 C9          62.5210     4.9640    11.2350 c5         1 VA7       0.103300
     30 O4          62.8650     6.2900    10.7550 os         1 VA7      -0.462000
     31 C10         62.5050     4.9190    12.7880 c3         1 VA7       0.227600
     32 O5          63.8580     4.8960    13.2760 os         1 VA7      -0.636400
     33 H1          67.0480     7.2280     5.7720 h5         1 VA7       0.009100
     34 H2          70.0080     8.6950     8.7830 hn         1 VA7       0.488500
     35 H3          69.3070     8.4290    10.3470 hn         1 VA7       0.488500
     36 H4          65.0510     6.7690    11.9380 h5         1 VA7       0.156800
     37 H5          63.2030     6.8140     8.7510 h2         1 VA7       0.052700
     38 H8          62.5850     4.4720     8.5860 hc         1 VA7       0.048700
     39 H9          64.3460     4.3370     8.4960 hc         1 VA7       0.048700
     40 H12         64.5270     4.0790    10.9760 h1         1 VA7       0.078700
     41 H13         63.2400     2.2930    11.4370 ho         1 VA7       0.631000
     42 H14         61.4990     4.7550    10.8890 h1         1 VA7       0.031700
     43 H15         61.9690     5.8000    13.1650 h1         1 VA7       0.047200
     44 H16         61.9460     4.0310    13.1060 h1         1 VA7       0.047200
@<TRIPOS>BOND
     1     1     2 ar  
     2     1     6 ar  
     3     2     3 ar  
     4     2    33 1   
     5     3     4 ar  
     6     4     5 ar  
     7     4    10 1   
     8     5     6 ar  
     9     5     8 1   
    10     6     7 1   
    11     7    34 1   
    12     7    35 1   
    13     8     9 2   
    14     9    10 1   
    15     9    36 1   
    16    10    14 1   
    17    11    15 1   
    18    11    19 1   
    19    11    24 1   
    20    11    32 1   
    21    12    16 1   
    22    12    20 1   
    23    12    24 1   
    24    12    25 1   
    25    13    17 1   
    26    13    21 1   
    27    13    25 1   
    28    13    28 1   
    29    14    18 1   
    30    14    30 1   
    31    14    37 1   
    32    18    22 1   
    33    18    38 1   
    34    18    39 1   
    35    22    23 1   
    36    22    29 1   
    37    22    40 1   
    38    23    41 1   
    39    25    26 1   
    40    25    27 1   
    41    29    30 1   
    42    29    31 1   
    43    29    42 1   
    44    31    32 1   
    45    31    43 1   
    46    31    44 1   
@<TRIPOS>SUBSTRUCTURE
     1 VA7         1 TEMP              0 ****  ****    0 ROOT
