@<TRIPOS>MOLECULE
VA9
   56    59     1     0     0
SMALL
No Charge or Current Charge


@<TRIPOS>ATOM
      1 CAA         10.4340    15.9190     4.0590 ca         1 VA9      -0.086600
      2 CAB         10.0960    14.7030     4.6720 ca         1 VA9       0.118100
      3 CAC         11.0250    13.6600     4.7180 ca         1 VA9      -0.182000
      4 CAD         12.3080    13.7990     4.1450 ca         1 VA9      -0.162600
      5 CAE         12.6600    15.0130     3.5010 ca         1 VA9      -0.163600
      6 CAF         11.7150    16.0890     3.4790 ca         1 VA9      -0.022600
      7 CAG         13.2880    12.6510     4.2430 c          1 VA9       0.612300
      8 CAH         14.7150    12.8810     3.7860 ca         1 VA9      -0.134600
      9 CAI         15.0780    14.0810     3.1170 ca         1 VA9      -0.231600
     10 CAJ         14.0200    15.1330     2.8310 c          1 VA9       0.610300
     11 CAK         15.7070    11.8980     4.0150 ca         1 VA9       0.046100
     12 CAL         17.0350    12.1060     3.6080 ca         1 VA9       0.147100
     13 CAM         17.4320    13.2980     2.9590 cp         1 VA9      -0.149000
     14 CAN         16.4270    14.2730     2.7080 ca         1 VA9       0.216100
     15 CAQ         12.0390    17.4450     2.8800 c          1 VA9       0.747600
     16 CAT          9.4380    17.0460     4.0420 c          1 VA9       0.747600
     17 CBA         18.8660    13.5380     2.5500 cp         1 VA9      -0.070000
     18 CBB         19.5350    14.7140     2.9770 ca         1 VA9      -0.044000
     19 CBC         20.8540    15.0000     2.5740 ca         1 VA9      -0.143300
     20 CBD         21.5330    14.0980     1.7360 ca         1 VA9      -0.075000
     21 CBE         20.8970    12.9230     1.3100 ca         1 VA9      -0.159000
     22 CBF         19.5830    12.6390     1.7150 ca         1 VA9       0.168100
     23 CBG         21.5280    16.2890     3.0300 c3         1 VA9      -0.042100
     24 CBH         21.2130    17.5000     2.1240 c3         1 VA9       0.108000
     25 CBJ         21.0820    16.7880    -0.3160 c          1 VA9       0.611100
     26 CBL         19.5570    16.7050    -0.2800 c3         1 VA9      -0.181100
     27 NBI         21.7400    17.3440     0.7600 ns         1 VA9      -0.512900
     28 OAO         16.7730    15.4120     2.0390 oh         1 VA9      -0.568100
     29 OAP         14.2600    16.0240     2.0260 o          1 VA9      -0.526100
     30 OAR         12.7470    18.2040     3.5280 o          1 VA9      -0.700500
     31 OAS         11.5380    17.7360     1.8010 o          1 VA9      -0.700500
     32 OAU          9.5840    17.9560     4.8480 o          1 VA9      -0.706500
     33 OAV          8.5310    17.0080     3.2200 o          1 VA9      -0.706500
     34 OAW          8.8740    14.5250     5.2540 oh         1 VA9      -0.504100
     35 OAX         12.9390    11.5600     4.6930 o          1 VA9      -0.623100
     36 OAY         15.3960    10.7190     4.6450 oh         1 VA9      -0.599100
     37 OAZ         17.9250    11.1050     3.8640 oh         1 VA9      -0.536100
     38 OBK         21.7180    16.4510    -1.3020 o          1 VA9      -0.634100
     39 OBM         19.0160    11.4730     1.3050 oh         1 VA9      -0.544100
     40 H1          10.7500    12.7310     5.2120 ha         1 VA9       0.096000
     41 H2          19.0110    15.4170     3.6200 ha         1 VA9       0.120000
     42 H3          22.5500    14.3090     1.4140 ha         1 VA9       0.101000
     43 H4          21.4280    12.2250     0.6680 ha         1 VA9       0.118000
     44 H5          21.2120    16.5310     4.0520 hc         1 VA9       0.042700
     45 H6          22.6160    16.1540     3.0770 hc         1 VA9       0.042700
     46 H7          21.6750    18.3950     2.5620 h1         1 VA9       0.051200
     47 H8          20.1300    17.6730     2.1020 h1         1 VA9       0.051200
     48 H9          19.1360    16.3530    -1.2290 hc         1 VA9       0.071700
     49 H10         19.2470    16.0630     0.5480 hc         1 VA9       0.071700
     50 H11         19.1480    17.6800     0.0040 hc         1 VA9       0.071700
     51 H12         22.7390    17.4470     0.6370 hn         1 VA9       0.293500
     52 H13         15.9280    15.9010     1.8640 ho         1 VA9       0.536000
     53 H16          8.8370    13.6180     5.6240 ho         1 VA9       0.420000
     54 H17         14.4120    10.7400     4.8110 ho         1 VA9       0.526000
     55 H18         17.4140    10.4390     4.3810 ho         1 VA9       0.482000
     56 H19         18.3690    11.2360     2.0100 ho         1 VA9       0.481000
@<TRIPOS>BOND
     1     1     2 ar  
     2     1     6 ar  
     3     1    16 1   
     4     2     3 ar  
     5     2    34 1   
     6     3     4 ar  
     7     3    40 1   
     8     4     5 ar  
     9     4     7 1   
    10     5     6 ar  
    11     5    10 1   
    12     6    15 1   
    13     7     8 1   
    14     7    35 2   
    15     8     9 ar  
    16     8    11 ar  
    17     9    10 1   
    18     9    14 ar  
    19    10    29 2   
    20    11    12 ar  
    21    11    36 1   
    22    12    13 ar  
    23    12    37 1   
    24    13    14 ar  
    25    13    17 1   
    26    14    28 1   
    27    15    30 1   
    28    15    31 1   
    29    16    32 1   
    30    16    33 1   
    31    17    18 ar  
    32    17    22 ar  
    33    18    19 ar  
    34    18    41 1   
    35    19    20 ar  
    36    19    23 1   
    37    20    21 ar  
    38    20    42 1   
    39    21    22 ar  
    40    21    43 1   
    41    22    39 1   
    42    23    24 1   
    43    23    44 1   
    44    23    45 1   
    45    24    27 1   
    46    24    46 1   
    47    24    47 1   
    48    25    26 1   
    49    25    27 1   
    50    25    38 2   
    51    26    48 1   
    52    26    49 1   
    53    26    50 1   
    54    27    51 1   
    55    28    52 1   
    56    34    53 1   
    57    36    54 1   
    58    37    55 1   
    59    39    56 1   
@<TRIPOS>SUBSTRUCTURE
     1 VA9         1 TEMP              0 ****  ****    0 ROOT
