@<TRIPOS>MOLECULE
VA9
   56    59     1     0     0
SMALL
abcg2


@<TRIPOS>ATOM
      1 CAA         10.4630    15.7680     3.8650 ca         1 VA9      -0.086600
      2 CAB         10.1960    14.6190     4.6120 ca         1 VA9       0.118100
      3 CAC         11.1860    13.6700     4.8350 ca         1 VA9      -0.182000
      4 CAD         12.4400    13.8430     4.2730 ca         1 VA9      -0.162600
      5 CAE         12.7270    14.9860     3.5080 ca         1 VA9      -0.163600
      6 CAF         11.7380    15.9690     3.3370 ca         1 VA9      -0.022600
      7 CAG         13.4640    12.8210     4.5450 c          1 VA9       0.612300
      8 CAH         14.8010    13.0180     3.9930 ca         1 VA9      -0.134600
      9 CAI         15.0700    14.1260     3.1570 ca         1 VA9      -0.231600
     10 CAJ         14.0320    15.1010     2.8460 c          1 VA9       0.610300
     11 CAK         15.7930    12.1010     4.2900 ca         1 VA9       0.046100
     12 CAL         17.0990    12.2990     3.7750 ca         1 VA9       0.147100
     13 CAM         17.3780    13.3690     2.9480 cp         1 VA9      -0.149000
     14 CAN         16.3500    14.2790     2.6180 ca         1 VA9       0.216100
     15 CAQ         12.0040    17.3220     2.6710 c          1 VA9       0.747600
     16 CAT          9.3340    16.7690     3.6320 c          1 VA9       0.747600
     17 CBA         18.7550    13.5820     2.4460 cp         1 VA9      -0.070000
     18 CBB         19.5430    14.5930     2.9880 ca         1 VA9      -0.044000
     19 CBC         20.8430    14.8270     2.5580 ca         1 VA9      -0.143300
     20 CBD         21.3520    14.0020     1.5580 ca         1 VA9      -0.075000
     21 CBE         20.5870    12.9940     0.9970 ca         1 VA9      -0.159000
     22 CBF         19.2810    12.7810     1.4300 ca         1 VA9       0.168100
     23 CBG         21.6310    15.9850     3.0940 c3         1 VA9      -0.042100
     24 CBH         21.3830    17.2720     2.2980 c3         1 VA9       0.108000
     25 CBJ         21.0520    16.9400    -0.1740 c          1 VA9       0.611100
     26 CBL         19.5530    16.9250     0.0060 c3         1 VA9      -0.181100
     27 NBI         21.8050    17.1770     0.9210 ns         1 VA9      -0.512900
     28 OAO         16.6590    15.2690     1.7920 oh         1 VA9      -0.568100
     29 OAP         14.2590    16.0000     2.0290 o          1 VA9      -0.526100
     30 OAR         12.6530    18.1210     3.3640 o          1 VA9      -0.700500
     31 OAS         11.4910    17.4920     1.5540 o          1 VA9      -0.700500
     32 OAU          9.4050    17.8320     4.2700 o          1 VA9      -0.706500
     33 OAV          8.4600    16.3990     2.8320 o          1 VA9      -0.706500
     34 OAW          8.9630    14.4920     5.1280 oh         1 VA9      -0.504100
     35 OAX         13.2090    11.8340     5.2350 o          1 VA9      -0.623100
     36 OAY         15.6240    11.0180     5.0490 oh         1 VA9      -0.599100
     37 OAZ         18.0780    11.4500     4.0850 oh         1 VA9      -0.536100
     38 OBK         21.5690    16.7700    -1.2710 o          1 VA9      -0.634100
     39 OBM         18.5810    11.7920     0.8400 oh         1 VA9      -0.544100
     40 H1          10.9740    12.7940     5.4370 ha         1 VA9       0.096000
     41 H2          19.1200    15.2130     3.7710 ha         1 VA9       0.120000
     42 H3          22.3660    14.1490     1.2050 ha         1 VA9       0.101000
     43 H4          20.9970    12.3660     0.2160 ha         1 VA9       0.118000
     44 H5          21.3640    16.1780     4.1360 hc         1 VA9       0.042700
     45 H6          22.7000    15.7590     3.0790 hc         1 VA9       0.042700
     46 H7          21.9280    18.0930     2.7690 h1         1 VA9       0.051200
     47 H8          20.3280    17.5380     2.3410 h1         1 VA9       0.051200
     48 H9          19.0780    16.7740    -0.9600 hc         1 VA9       0.071700
     49 H10         19.2370    16.1270     0.6770 hc         1 VA9       0.071700
     50 H11         19.1900    17.8640     0.4260 hc         1 VA9       0.071700
     51 H12         22.8030    17.1480     0.7650 hn         1 VA9       0.293500
     52 H13         15.8270    15.7940     1.6630 ho         1 VA9       0.536000
     53 H16          8.8880    13.6760     5.6370 ho         1 VA9       0.420000
     54 H17         14.6800    11.0030     5.3340 ho         1 VA9       0.526000
     55 H18         17.7510    10.7390     4.6540 ho         1 VA9       0.482000
     56 H19         17.6630    11.7960     1.1360 ho         1 VA9       0.481000
@<TRIPOS>BOND
     1     1     2 ar  
     2     1     6 ar  
     3     1    16 1   
     4     2     3 ar  
     5     2    34 1   
     6     3     4 ar  
     7     3    40 1   
     8     4     5 ar  
     9     4     7 1   
    10     5     6 ar  
    11     5    10 1   
    12     6    15 1   
    13     7     8 1   
    14     7    35 2   
    15     8     9 ar  
    16     8    11 ar  
    17     9    10 1   
    18     9    14 ar  
    19    10    29 2   
    20    11    12 ar  
    21    11    36 1   
    22    12    13 ar  
    23    12    37 1   
    24    13    14 ar  
    25    13    17 1   
    26    14    28 1   
    27    15    30 1   
    28    15    31 1   
    29    16    32 1   
    30    16    33 1   
    31    17    18 ar  
    32    17    22 ar  
    33    18    19 ar  
    34    18    41 1   
    35    19    20 ar  
    36    19    23 1   
    37    20    21 ar  
    38    20    42 1   
    39    21    22 ar  
    40    21    43 1   
    41    22    39 1   
    42    23    24 1   
    43    23    44 1   
    44    23    45 1   
    45    24    27 1   
    46    24    46 1   
    47    24    47 1   
    48    25    26 1   
    49    25    27 1   
    50    25    38 2   
    51    26    48 1   
    52    26    49 1   
    53    26    50 1   
    54    27    51 1   
    55    28    52 1   
    56    34    53 1   
    57    36    54 1   
    58    37    55 1   
    59    39    56 1   
@<TRIPOS>SUBSTRUCTURE
     1 VA9         1 TEMP              0 ****  ****    0 ROOT
