@<TRIPOS>MOLECULE
VAA
   54    56     1     0     0
SMALL
No Charge or Current Charge


@<TRIPOS>ATOM
      1 N            2.4370    -1.6600     1.7770 n8         1 VAA      -1.018200
      2 CA           1.9430    -1.0020     3.0340 c3         1 VAA       0.094500
      3 CB           3.1170    -0.3130     3.8000 c3         1 VAA      -0.092700
      4 CG1          4.1450    -1.3370     4.3440 c3         1 VAA      -0.094100
      5 CG2          3.8250     0.8090     2.9970 c3         1 VAA      -0.094100
      6 C            0.7020    -0.0440     2.8650 c          1 VAA       0.625100
      7 O            0.6460     0.8460     2.0270 o          1 VAA      -0.556100
      8 S           -1.7480     0.5660     3.8010 s6         1 VAA       1.291900
      9 O1S         -2.7580    -0.2760     4.4380 o          1 VAA      -0.532000
     10 O2S         -1.4150     1.8710     4.3670 o          1 VAA      -0.532000
     11 N3S         -0.3590    -0.3150     3.6670 ns         1 VAA      -0.610300
     12 N5          -2.2660     0.8740     2.2650 n7         1 VAA      -0.872300
     13 C5          -2.7860    -0.2470     1.4570 c3         1 VAA       0.184800
     14 C4          -3.0470     0.1810    -0.0110 c5         1 VAA       0.165300
     15 O4          -1.8000     0.6750    -0.5810 os         1 VAA      -0.449000
     16 C1          -1.5580    -0.0090    -1.8250 c5         1 VAA       0.318300
     17 N9          -0.1330     0.0210    -2.1220 na         1 VAA      -0.291300
     18 C9           0.4890     0.3300    -3.3020 ca         1 VAA       0.144500
     19 N3          -0.0190     0.6770    -4.5010 nb         1 VAA      -0.216000
     20 C2           0.8850     0.9160    -5.4810 ca         1 VAA       0.183900
     21 N1           2.2320     0.8390    -5.3740 nb         1 VAA      -0.301000
     22 C6           2.7070     0.4940    -4.1680 ca         1 VAA       0.450900
     23 N6           4.0600     0.4120    -4.0600 nv         1 VAA      -1.066900
     24 C7           1.8410     0.2230    -3.0870 ca         1 VAA      -0.099600
     25 N7           2.1440    -0.1560    -1.7840 nc         1 VAA      -0.555100
     26 C8           0.9190    -0.2640    -1.2350 cd         1 VAA       0.417700
     27 C10         -2.1840    -1.4200    -1.5930 c5         1 VAA       0.084300
     28 O2          -2.4040    -2.1870    -2.7950 oh         1 VAA      -0.691000
     29 C3          -3.5270    -0.9870    -0.9460 c5         1 VAA       0.109300
     30 O3          -4.4330    -0.5520    -1.9680 oh         1 VAA      -0.698000
     31 HN2          3.2790    -2.2070     1.9940 hn         1 VAA       0.424000
     32 H            2.7870    -0.9350     1.1380 hn         1 VAA       0.424000
     33 HA           1.5880    -1.8170     3.6800 h1         1 VAA       0.063700
     34 HB           2.6730     0.1660     4.6830 hc         1 VAA       0.057700
     35 HG11         4.8820    -0.8390     4.9860 hc         1 VAA       0.040867
     36 HG12         3.6480    -2.1080     4.9450 hc         1 VAA       0.040867
     37 HG13         4.6880    -1.8310     3.5300 hc         1 VAA       0.040867
     38 HG21         4.3160     0.4120     2.1000 hc         1 VAA       0.040867
     39 HG22         3.1170     1.5860     2.6880 hc         1 VAA       0.040867
     40 HG23         4.5940     1.2930     3.6130 hc         1 VAA       0.040867
     41 HNS3        -0.3220    -1.0710     4.3290 hn         1 VAA       0.345500
     42 HN'5        -1.3620     1.1420     1.8630 hn         1 VAA       0.520000
     43 H5'1        -2.0760    -1.0860     1.4530 h1         1 VAA       0.051200
     44 H5'2        -3.7300    -0.6180     1.8810 h1         1 VAA       0.051200
     45 H4          -3.7850     0.9950    -0.0010 h1         1 VAA       0.113700
     46 H1          -2.0740     0.5120    -2.6440 h2         1 VAA       0.124700
     47 H2           0.4860     1.1970    -6.4550 h5         1 VAA       0.047100
     48 H61          4.6020     0.3240    -4.9150 hn         1 VAA       0.505000
     49 H62          4.4290    -0.0540    -3.2350 hn         1 VAA       0.505000
     50 H8           0.7130    -0.5520    -0.2110 h5         1 VAA       0.074800
     51 H7          -1.5800    -1.9940    -0.8760 h1         1 VAA       0.049700
     52 HO'2        -1.5270    -2.5270    -3.0970 ho         1 VAA       0.516000
     53 H3          -3.9740    -1.8090    -0.3690 h1         1 VAA       0.053700
     54 HT'3        -4.2170    -1.1380    -2.7370 ho         1 VAA       0.524000
@<TRIPOS>BOND
     1     1     2 1   
     2     1    31 1   
     3     1    32 1   
     4     2     3 1   
     5     2     6 1   
     6     2    33 1   
     7     3     4 1   
     8     3     5 1   
     9     3    34 1   
    10     4    35 1   
    11     4    36 1   
    12     4    37 1   
    13     5    38 1   
    14     5    39 1   
    15     5    40 1   
    16     6     7 2   
    17     6    11 1   
    18     8     9 2   
    19     8    10 2   
    20     8    11 1   
    21     8    12 1   
    22    11    41 1   
    23    12    13 1   
    24    12    42 1   
    25    13    14 1   
    26    13    43 1   
    27    13    44 1   
    28    14    15 1   
    29    14    29 1   
    30    14    45 1   
    31    15    16 1   
    32    16    17 1   
    33    16    27 1   
    34    16    46 1   
    35    17    18 1   
    36    17    26 1   
    37    18    19 ar  
    38    18    24 ar  
    39    19    20 ar  
    40    20    21 ar  
    41    20    47 1   
    42    21    22 ar  
    43    22    23 1   
    44    22    24 ar  
    45    23    48 1   
    46    23    49 1   
    47    24    25 1   
    48    25    26 2   
    49    26    50 1   
    50    27    28 1   
    51    27    29 1   
    52    27    51 1   
    53    28    52 1   
    54    29    30 1   
    55    29    53 1   
    56    30    54 1   
@<TRIPOS>SUBSTRUCTURE
     1 VAA         1 TEMP              0 ****  ****    0 ROOT
