@<TRIPOS>MOLECULE
VAA
   54    56     1     0     0
SMALL
abcg2


@<TRIPOS>ATOM
      1 N            2.3720    -1.4790     1.5210 n8         1 VAA      -1.018200
      2 CA           1.8750    -1.0000     2.7920 c3         1 VAA       0.094500
      3 CB           2.9320    -0.5490     3.8340 c3         1 VAA      -0.092700
      4 CG1          3.7520    -1.7540     4.2840 c3         1 VAA      -0.094100
      5 CG2          3.8360     0.5680     3.3240 c3         1 VAA      -0.094100
      6 C            0.9060     0.1330     2.5150 c          1 VAA       0.625100
      7 O            1.0280     0.9180     1.6000 o          1 VAA      -0.556100
      8 S           -1.3730     1.3570     3.2320 s6         1 VAA       1.291900
      9 O1S         -2.3720     0.9060     4.1730 o          1 VAA      -0.532000
     10 O2S         -0.8080     2.6810     3.3200 o          1 VAA      -0.532000
     11 N3S         -0.1410     0.2190     3.3950 ns         1 VAA      -0.610300
     12 N5          -1.9580     1.1850     1.7190 n7         1 VAA      -0.872300
     13 C5          -2.4410    -0.1240     1.2960 c3         1 VAA       0.184800
     14 C4          -3.0020    -0.0090    -0.1130 c5         1 VAA       0.165300
     15 O4          -2.0230     0.5600    -0.9850 os         1 VAA      -0.449000
     16 C1          -1.5820    -0.3920    -1.9230 c5         1 VAA       0.318300
     17 N9          -0.1700    -0.2560    -2.1430 na         1 VAA      -0.291300
     18 C9           0.4040     0.3820    -3.2100 ca         1 VAA       0.144500
     19 N3          -0.1970     0.9290    -4.2620 nb         1 VAA      -0.216000
     20 C2           0.6760     1.4490    -5.1080 ca         1 VAA       0.183900
     21 N1           2.0030     1.4760    -5.0140 nb         1 VAA      -0.301000
     22 C6           2.5910     0.9230    -3.9470 ca         1 VAA       0.450900
     23 N6           3.9210     0.9540    -3.8440 nv         1 VAA      -1.066900
     24 C7           1.7660     0.3350    -2.9710 ca         1 VAA      -0.099600
     25 N7           2.0320    -0.3040    -1.7860 nc         1 VAA      -0.555100
     26 C8           0.8650    -0.6330    -1.3240 cd         1 VAA       0.417700
     27 C10         -2.0140    -1.7460    -1.3660 c5         1 VAA       0.084300
     28 O2          -2.1090    -2.6750    -2.4010 oh         1 VAA      -0.691000
     29 C3          -3.3430    -1.3740    -0.6990 c5         1 VAA       0.109300
     30 O3          -4.3580    -1.2120    -1.6510 oh         1 VAA      -0.698000
     31 HN2          3.0330    -2.2310     1.6640 hn         1 VAA       0.424000
     32 H            2.8550    -0.7490     1.0130 hn         1 VAA       0.424000
     33 HA           1.3100    -1.8180     3.2520 h1         1 VAA       0.063700
     34 HB           2.3850    -0.1780     4.7080 hc         1 VAA       0.057700
     35 HG11         4.4700    -1.4650     5.0520 hc         1 VAA       0.040867
     36 HG12         3.1160    -2.5360     4.7020 hc         1 VAA       0.040867
     37 HG13         4.3200    -2.1880     3.4590 hc         1 VAA       0.040867
     38 HG21         4.3610     0.2730     2.4130 hc         1 VAA       0.040867
     39 HG22         3.2910     1.4880     3.1150 hc         1 VAA       0.040867
     40 HG23         4.5960     0.8020     4.0700 hc         1 VAA       0.040867
     41 HNS3        -0.2750    -0.4870     4.1090 hn         1 VAA       0.345500
     42 HN'5        -1.3550     1.6360     1.0360 hn         1 VAA       0.520000
     43 H5'1        -1.6490    -0.8820     1.3330 h1         1 VAA       0.051200
     44 H5'2        -3.2400    -0.4470     1.9610 h1         1 VAA       0.051200
     45 H4          -3.8780     0.6460    -0.0980 h1         1 VAA       0.113700
     46 H1          -2.0550    -0.2190    -2.8950 h2         1 VAA       0.124700
     47 H2           0.2620     1.9150    -5.9960 h5         1 VAA       0.047100
     48 H61          4.4790     1.3410    -4.5850 hn         1 VAA       0.505000
     49 H62          4.3910     0.5150    -3.0720 hn         1 VAA       0.505000
     50 H8           0.7150    -1.1580    -0.3920 h5         1 VAA       0.074800
     51 H7          -1.3180    -2.0780    -0.5850 h1         1 VAA       0.049700
     52 HO'2        -2.0960    -3.5620    -2.0270 ho         1 VAA       0.516000
     53 H3          -3.6220    -2.0940     0.0820 h1         1 VAA       0.053700
     54 HT'3        -4.3540    -1.9860    -2.2270 ho         1 VAA       0.524000
@<TRIPOS>BOND
     1     1     2 1   
     2     1    31 1   
     3     1    32 1   
     4     2     3 1   
     5     2     6 1   
     6     2    33 1   
     7     3     4 1   
     8     3     5 1   
     9     3    34 1   
    10     4    35 1   
    11     4    36 1   
    12     4    37 1   
    13     5    38 1   
    14     5    39 1   
    15     5    40 1   
    16     6     7 2   
    17     6    11 1   
    18     8     9 2   
    19     8    10 2   
    20     8    11 1   
    21     8    12 1   
    22    11    41 1   
    23    12    13 1   
    24    12    42 1   
    25    13    14 1   
    26    13    43 1   
    27    13    44 1   
    28    14    15 1   
    29    14    29 1   
    30    14    45 1   
    31    15    16 1   
    32    16    17 1   
    33    16    27 1   
    34    16    46 1   
    35    17    18 1   
    36    17    26 1   
    37    18    19 ar  
    38    18    24 ar  
    39    19    20 ar  
    40    20    21 ar  
    41    20    47 1   
    42    21    22 ar  
    43    22    23 1   
    44    22    24 ar  
    45    23    48 1   
    46    23    49 1   
    47    24    25 1   
    48    25    26 2   
    49    26    50 1   
    50    27    28 1   
    51    27    29 1   
    52    27    51 1   
    53    28    52 1   
    54    29    30 1   
    55    29    53 1   
    56    30    54 1   
@<TRIPOS>SUBSTRUCTURE
     1 VAA         1 TEMP              0 ****  ****    0 ROOT
