@<TRIPOS>MOLECULE
VAB
   34    35     1     0     0
SMALL
No Charge or Current Charge


@<TRIPOS>ATOM
      1 C8           0.8770    -2.0720     0.0310 ca         1 VAB      -0.031000
      2 C9          -0.5270    -1.9920    -0.0650 ca         1 VAB      -0.176000
      3 C11         -0.3860     0.4250    -0.3310 ca         1 VAB      -0.117000
      4 C7           1.6420    -0.8990    -0.0540 ca         1 VAB       0.049400
      5 C10         -1.1720    -0.7490    -0.2480 ca         1 VAB       0.018000
      6 C12          1.0100     0.3180    -0.2310 ca         1 VAB      -0.141000
      7 C5           3.3860     0.4120    -0.0930 cc         1 VAB       0.386100
      8 C1           8.1110    -0.2010     1.3860 c2         1 VAB      -0.304000
      9 C2           7.4310    -0.5450     0.2800 c2         1 VAB      -0.214200
     10 C15         -3.5180     0.2550    -0.5570 c          1 VAB       0.595100
     11 C19         -7.2060    -0.2930     0.6550 c          1 VAB       0.718000
     12 C3           5.9360    -0.7790     0.2100 c3         1 VAB       0.091800
     13 C17         -4.9800    -0.2220    -0.5700 c3         1 VAB      -0.126400
     14 C18         -5.7540     0.2090     0.7100 c3         1 VAB      -0.205400
     15 N6           3.0300    -0.8720     0.0290 nd         1 VAB      -0.542100
     16 N14         -2.5910    -0.7540    -0.3340 ns         1 VAB      -0.159000
     17 O16         -3.2270     1.4290    -0.7610 o          1 VAB      -0.586100
     18 O20         -7.4440    -1.4080     1.0920 o          1 VAB      -0.737000
     19 O21         -8.0410     0.4200     0.1210 o          1 VAB      -0.737000
     20 S13          2.1440     1.6600    -0.3110 ss         1 VAB       0.044800
     21 S4           5.0940     0.8480    -0.0360 ss         1 VAB      -0.251200
     22 H8           1.3650    -3.0340     0.1720 ha         1 VAB       0.122000
     23 H9          -1.1150    -2.9040     0.0030 ha         1 VAB       0.114000
     24 H11         -0.8310     1.4070    -0.4650 ha         1 VAB       0.166000
     25 H14         -3.0020    -1.6690    -0.2010 hn         1 VAB       0.153000
     26 H11C         9.1910    -0.0470     1.3680 ha         1 VAB       0.164000
     27 H12C         7.6120    -0.0590     2.3460 ha         1 VAB       0.164000
     28 H2           7.9500    -0.6800    -0.6720 ha         1 VAB       0.178000
     29 H31C         5.6910    -1.4450    -0.6280 h1         1 VAB       0.082700
     30 H32C         5.5750    -1.2400     1.1380 h1         1 VAB       0.082700
     31 H171        -5.4800     0.2160    -1.4410 hc         1 VAB       0.062700
     32 H172        -5.0130    -1.3160    -0.6400 hc         1 VAB       0.062700
     33 H181        -5.7330     1.3060     0.7230 hc         1 VAB       0.036700
     34 H182        -5.2240    -0.2530     1.5520 hc         1 VAB       0.036700
@<TRIPOS>BOND
     1     1     2 ar  
     2     1     4 ar  
     3     1    22 1   
     4     2     5 ar  
     5     2    23 1   
     6     3     5 ar  
     7     3     6 ar  
     8     3    24 1   
     9     4     6 ar  
    10     4    15 1   
    11     5    16 1   
    12     6    20 1   
    13     7    15 2   
    14     7    20 1   
    15     7    21 1   
    16     8     9 2   
    17     8    26 1   
    18     8    27 1   
    19     9    12 1   
    20     9    28 1   
    21    10    13 1   
    22    10    16 1   
    23    10    17 2   
    24    11    14 1   
    25    11    18 1   
    26    11    19 1   
    27    12    21 1   
    28    12    29 1   
    29    12    30 1   
    30    13    14 1   
    31    13    31 1   
    32    13    32 1   
    33    14    33 1   
    34    14    34 1   
    35    16    25 1   
@<TRIPOS>SUBSTRUCTURE
     1 VAB         1 TEMP              0 ****  ****    0 ROOT
