@<TRIPOS>MOLECULE
VAB
   34    35     1     0     0
SMALL
bcc


@<TRIPOS>ATOM
      1 C8           0.9400    -2.1580     0.1100 ca         1 VAB      -0.049000
      2 C9          -0.4350    -2.1150     0.0660 ca         1 VAB      -0.194000
      3 C11         -0.4410     0.3070     0.1310 ca         1 VAB      -0.135000
      4 C7           1.6570    -0.9640     0.1640 ca         1 VAB       0.049400
      5 C10         -1.1410    -0.8960     0.0750 ca         1 VAB       0.110600
      6 C12          0.9440     0.2420     0.1740 ca         1 VAB      -0.014100
      7 C5           3.3740     0.3920     0.2660 cc         1 VAB       0.386100
      8 C1           8.3130    -0.4770     0.9070 c2         1 VAB      -0.204000
      9 C2           7.3820    -0.2110    -0.0010 c2         1 VAB      -0.164200
     10 C15         -3.4650     0.0040    -0.0380 c          1 VAB       0.662100
     11 C19         -7.3910     0.0650    -0.1200 c          1 VAB       0.928600
     12 C3           5.9430    -0.5700     0.1680 c3         1 VAB       0.043900
     13 C17         -4.8850    -0.5170    -0.0900 c3         1 VAB      -0.126400
     14 C18         -5.9370     0.5740    -0.0860 c3         1 VAB      -0.205400
     15 N6           3.0260    -0.8420     0.2180 nd         1 VAB      -0.542100
     16 N14         -2.5320    -0.9880     0.0330 ns         1 VAB      -0.485100
     17 O16         -3.1800     1.1870    -0.0620 o          1 VAB      -0.586100
     18 O20         -7.5800    -1.1670    -0.1350 o          1 VAB      -0.842300
     19 O21         -8.2710     0.9500    -0.1280 o          1 VAB      -0.842300
     20 S13          2.0680     1.5630     0.2480 ss         1 VAB      -0.082100
     21 S4           5.0040     0.9860     0.3560 ss         1 VAB      -0.203300
     22 H8           1.4610    -3.1060     0.1030 ha         1 VAB       0.140000
     23 H9          -0.9910    -3.0440     0.0220 ha         1 VAB       0.132000
     24 H11         -0.9510     1.2560     0.1410 ha         1 VAB       0.184000
     25 H14         -2.8940    -1.9300     0.0340 hn         1 VAB       0.319500
     26 H11C         9.3500    -0.2160     0.7430 ha         1 VAB       0.114000
     27 H12C         8.0730    -0.9710     1.8410 ha         1 VAB       0.114000
     28 H2           7.6520     0.2870    -0.9260 ha         1 VAB       0.128000
     29 H31C         5.5560    -1.0840    -0.7120 h1         1 VAB       0.082700
     30 H32C         5.7800    -1.1950     1.0440 h1         1 VAB       0.082700
     31 H171        -4.9830    -1.1430    -0.9820 hc         1 VAB       0.062700
     32 H172        -5.0330    -1.1980     0.7530 hc         1 VAB       0.062700
     33 H181        -5.7910     1.2440    -0.9370 hc         1 VAB       0.036700
     34 H182        -5.8210     1.2070     0.7990 hc         1 VAB       0.036700
@<TRIPOS>BOND
     1     1     2 ar  
     2     1     4 ar  
     3     1    22 1   
     4     2     5 ar  
     5     2    23 1   
     6     3     5 ar  
     7     3     6 ar  
     8     3    24 1   
     9     4     6 ar  
    10     4    15 1   
    11     5    16 1   
    12     6    20 1   
    13     7    15 2   
    14     7    20 1   
    15     7    21 1   
    16     8     9 2   
    17     8    26 1   
    18     8    27 1   
    19     9    12 1   
    20     9    28 1   
    21    10    13 1   
    22    10    16 1   
    23    10    17 2   
    24    11    14 1   
    25    11    18 1   
    26    11    19 1   
    27    12    21 1   
    28    12    29 1   
    29    12    30 1   
    30    13    14 1   
    31    13    31 1   
    32    13    32 1   
    33    14    33 1   
    34    14    34 1   
    35    16    25 1   
@<TRIPOS>SUBSTRUCTURE
     1 VAB         1 TEMP              0 ****  ****    0 ROOT
