@<TRIPOS>MOLECULE
VAC
   88    93     1     0     0
SMALL
bcc


@<TRIPOS>ATOM
      1 C1          -0.0090    -0.6190     0.4730 c3         1 VAC       0.142100
      2 O2           0.3980    -1.4040     1.5760 oh         1 VAC      -0.596800
      3 C3          -1.2300     0.2460     0.7850 c3         1 VAC      -0.103400
      4 C4           1.1300     0.2610    -0.0440 c3         1 VAC      -0.103400
      5 C6           2.4460    -0.4820    -0.2770 c3         1 VAC      -0.128700
      6 C9          -2.5680    -0.4990     0.8290 c3         1 VAC      -0.128700
      7 C12          2.3060    -1.6310    -1.2920 c3         1 VAC      -0.024100
      8 C13          3.4930     0.4920    -0.7860 c          1 VAC       0.668100
      9 O15          3.3120     1.1650    -1.7900 o          1 VAC      -0.609100
     10 C16          3.6170    -2.3120    -1.5740 ca         1 VAC      -0.092300
     11 N19          4.6290     0.5380    -0.0650 ns         1 VAC      -0.561400
     12 C20          5.7630     1.3560    -0.3980 c5         1 VAC       0.119000
     13 C21          6.9080     0.5990    -1.1220 c5         1 VAC       0.132600
     14 O22          7.0930    -0.6830    -0.5720 oh         1 VAC      -0.596300
     15 C23          6.4600     1.9390     0.8020 ca         1 VAC      -0.106800
     16 C25          7.8300     1.9920     0.5710 ca         1 VAC      -0.069800
     17 C26          8.1450     1.4370    -0.7910 c5         1 VAC      -0.032100
     18 C30         -3.6890     0.5080     1.0270 c          1 VAC       0.668100
     19 C31         -2.6710    -1.5610     1.9380 c3         1 VAC      -0.024100
     20 C33         -4.0330    -2.1970     1.9810 ca         1 VAC      -0.092300
     21 O36         -3.7170     1.2500     1.9980 o          1 VAC      -0.609100
     22 C37          8.6810     2.5120     1.5320 ca         1 VAC      -0.113000
     23 C38          8.1410     2.9730     2.7310 ca         1 VAC      -0.123000
     24 C39          6.7700     2.9180     2.9580 ca         1 VAC      -0.133000
     25 C40          5.9160     2.4000     1.9880 ca         1 VAC      -0.105000
     26 C45         -4.3880    -3.1670     1.0430 ca         1 VAC      -0.127000
     27 C46         -5.6560    -3.7330     1.0440 ca         1 VAC      -0.134000
     28 C47         -6.5960    -3.3340     1.9880 ca         1 VAC      -0.129000
     29 C48         -6.2530    -2.3720     2.9300 ca         1 VAC      -0.134000
     30 C49         -4.9820    -1.8110     2.9240 ca         1 VAC      -0.127000
     31 C55          4.1640    -3.1970    -0.6460 ca         1 VAC      -0.127000
     32 C56          5.3880    -3.8090    -0.8800 ca         1 VAC      -0.134000
     33 C57          6.0880    -3.5440    -2.0520 ca         1 VAC      -0.129000
     34 C58          5.5540    -2.6620    -2.9830 ca         1 VAC      -0.134000
     35 C59          4.3290    -2.0500    -2.7430 ca         1 VAC      -0.127000
     36 C68         -8.2170     1.3970    -0.1710 c5         1 VAC      -0.032100
     37 C69         -7.1120     0.5650     0.4830 c5         1 VAC       0.132600
     38 O70         -7.1320    -0.7180    -0.0960 oh         1 VAC      -0.596300
     39 C71         -5.8150     1.3290     0.1010 c5         1 VAC       0.119000
     40 C73         -6.1640     1.9320    -1.2340 ca         1 VAC      -0.106800
     41 C76         -7.5450     1.9740    -1.3860 ca         1 VAC      -0.069800
     42 C77         -5.3200     2.4150    -2.2190 ca         1 VAC      -0.105000
     43 C78         -5.8810     2.9490    -3.3750 ca         1 VAC      -0.133000
     44 C79         -7.2620     2.9950    -3.5300 ca         1 VAC      -0.123000
     45 C80         -8.1050     2.5090    -2.5350 ca         1 VAC      -0.113000
     46 N86         -4.6370     0.5080     0.0720 ns         1 VAC      -0.561400
     47 H1          -0.2800    -1.3370    -0.3080 h1         1 VAC       0.071700
     48 HO2          0.5790    -0.8120     2.3140 ho         1 VAC       0.403000
     49 H31         -1.0650     0.7770     1.7290 hc         1 VAC       0.059950
     50 H32         -1.3040     1.0180     0.0130 hc         1 VAC       0.059950
     51 H41          0.8070     0.7310    -0.9770 hc         1 VAC       0.059950
     52 H42          1.3010     1.0740     0.6710 hc         1 VAC       0.059950
     53 H6           2.7800    -0.9080     0.6740 hc         1 VAC       0.056700
     54 H9          -2.7010    -1.0030    -0.1350 hc         1 VAC       0.056700
     55 H121         1.6040    -2.3630    -0.8900 hc         1 VAC       0.064700
     56 H122         1.8730    -1.2480    -2.2190 hc         1 VAC       0.064700
     57 HN19         4.7100    -0.0680     0.7360 hn         1 VAC       0.321000
     58 H20          5.4170     2.1650    -1.0480 h1         1 VAC       0.095200
     59 H21          6.7220     0.5440    -2.2000 h1         1 VAC       0.049200
     60 HO22         6.3820    -1.2540    -0.8820 ho         1 VAC       0.412500
     61 H261         9.0660     0.8530    -0.8310 hc         1 VAC       0.065700
     62 H262         8.2450     2.2480    -1.5180 hc         1 VAC       0.065700
     63 H311        -1.9140    -2.3250     1.7630 hc         1 VAC       0.064700
     64 H312        -2.4380    -1.1040     2.9020 hc         1 VAC       0.064700
     65 H37          9.7500     2.5530     1.3640 ha         1 VAC       0.134000
     66 H38          8.7950     3.3720     3.4950 ha         1 VAC       0.130000
     67 H39          6.3660     3.2780     3.8950 ha         1 VAC       0.130500
     68 H40          4.8480     2.3550     2.1670 ha         1 VAC       0.132500
     69 H45         -3.6630    -3.4890     0.3040 ha         1 VAC       0.137000
     70 H46         -5.9100    -4.4840     0.3080 ha         1 VAC       0.134500
     71 H47         -7.5860    -3.7710     1.9900 ha         1 VAC       0.136000
     72 H48         -6.9770    -2.0560     3.6700 ha         1 VAC       0.134500
     73 H49         -4.7270    -1.0600     3.6620 ha         1 VAC       0.137000
     74 H55          3.6260    -3.4150     0.2690 ha         1 VAC       0.137000
     75 H56          5.7970    -4.4940    -0.1480 ha         1 VAC       0.134500
     76 H57          7.0430    -4.0180    -2.2360 ha         1 VAC       0.136000
     77 H58          6.0910    -2.4480    -3.8980 ha         1 VAC       0.134500
     78 H59          3.9210    -1.3630    -3.4740 ha         1 VAC       0.137000
     79 H681        -9.1060     0.8040    -0.3940 hc         1 VAC       0.065700
     80 H682        -8.5290     2.1980     0.5060 hc         1 VAC       0.065700
     81 H69         -7.2260     0.5080     1.5710 h1         1 VAC       0.049200
     82 HO70        -6.5510    -1.2940     0.4120 ho         1 VAC       0.412500
     83 H71         -5.6500     2.1230     0.8350 h1         1 VAC       0.095200
     84 H77         -4.2440     2.3730    -2.0980 ha         1 VAC       0.132500
     85 H78         -5.2390     3.3260    -4.1610 ha         1 VAC       0.130500
     86 H79         -7.6860     3.4090    -4.4370 ha         1 VAC       0.130000
     87 H80         -9.1800     2.5420    -2.6660 ha         1 VAC       0.134000
     88 HN86        -4.5410    -0.1420    -0.6920 hn         1 VAC       0.321000
@<TRIPOS>BOND
     1     1     2 1   
     2     1     3 1   
     3     1     4 1   
     4     1    47 1   
     5     2    48 1   
     6     3     6 1   
     7     3    49 1   
     8     3    50 1   
     9     4     5 1   
    10     4    51 1   
    11     4    52 1   
    12     5     7 1   
    13     5     8 1   
    14     5    53 1   
    15     6    18 1   
    16     6    19 1   
    17     6    54 1   
    18     7    10 1   
    19     7    55 1   
    20     7    56 1   
    21     8     9 2   
    22     8    11 1   
    23    10    31 ar  
    24    10    35 ar  
    25    11    12 1   
    26    11    57 1   
    27    12    13 1   
    28    12    15 1   
    29    12    58 1   
    30    13    14 1   
    31    13    17 1   
    32    13    59 1   
    33    14    60 1   
    34    15    16 ar  
    35    15    25 ar  
    36    16    17 1   
    37    16    22 ar  
    38    17    61 1   
    39    17    62 1   
    40    18    21 2   
    41    18    46 1   
    42    19    20 1   
    43    19    63 1   
    44    19    64 1   
    45    20    26 ar  
    46    20    30 ar  
    47    22    23 ar  
    48    22    65 1   
    49    23    24 ar  
    50    23    66 1   
    51    24    25 ar  
    52    24    67 1   
    53    25    68 1   
    54    26    27 ar  
    55    26    69 1   
    56    27    28 ar  
    57    27    70 1   
    58    28    29 ar  
    59    28    71 1   
    60    29    30 ar  
    61    29    72 1   
    62    30    73 1   
    63    31    32 ar  
    64    31    74 1   
    65    32    33 ar  
    66    32    75 1   
    67    33    34 ar  
    68    33    76 1   
    69    34    35 ar  
    70    34    77 1   
    71    35    78 1   
    72    36    37 1   
    73    36    41 1   
    74    36    79 1   
    75    36    80 1   
    76    37    38 1   
    77    37    39 1   
    78    37    81 1   
    79    38    82 1   
    80    39    40 1   
    81    39    46 1   
    82    39    83 1   
    83    40    41 ar  
    84    40    42 ar  
    85    41    45 ar  
    86    42    43 ar  
    87    42    84 1   
    88    43    44 ar  
    89    43    85 1   
    90    44    45 ar  
    91    44    86 1   
    92    45    87 1   
    93    46    88 1   
@<TRIPOS>SUBSTRUCTURE
     1 VAC         1 TEMP              0 ****  ****    0 ROOT
