@<TRIPOS>MOLECULE
VAC
   88    93     1     0     0
SMALL
No Charge or Current Charge


@<TRIPOS>ATOM
      1 C1          -0.0000    -0.3850     0.5210 c3         1 VAC       0.165300
      2 O2           0.4160    -1.0920     1.6930 oh         1 VAC      -0.659000
      3 C3          -1.2600     0.4660     0.8410 c3         1 VAC      -0.103400
      4 C4           1.1800     0.4920     0.0230 c3         1 VAC      -0.103400
      5 C6           2.4820    -0.2760    -0.3640 c3         1 VAC      -0.128700
      6 C9          -2.6110    -0.3120     0.9380 c3         1 VAC      -0.128700
      7 C12          2.2920    -1.2470    -1.5590 c3         1 VAC      -0.024100
      8 C13          3.6240     0.7180    -0.6610 c          1 VAC       0.601100
      9 O15          3.5720     1.5230    -1.5820 o          1 VAC      -0.609100
     10 C16          3.5820    -1.9720    -1.9280 ca         1 VAC      -0.092300
     11 N19          4.7050     0.6250     0.1920 ns         1 VAC      -0.494400
     12 C20          5.8700     1.4910    -0.0490 c5         1 VAC       0.119000
     13 C21          6.8860     0.6680    -0.9720 c5         1 VAC       0.155800
     14 O22          6.8550    -0.7520    -0.7460 oh         1 VAC      -0.658500
     15 C23          6.7360     1.7480     1.1570 ca         1 VAC      -0.106800
     16 C25          8.0780     1.6180     0.8600 ca         1 VAC      -0.069800
     17 C26          8.3050     1.2400    -0.5830 c5         1 VAC      -0.032100
     18 C30         -3.7920     0.6810     0.9450 c          1 VAC       0.601100
     19 C31         -2.7180    -1.2750     2.1510 c3         1 VAC      -0.024100
     20 C33         -4.0770    -1.9620     2.2300 ca         1 VAC      -0.092300
     21 O36         -3.9590     1.4980     1.8420 o          1 VAC      -0.609100
     22 C37          9.0600     1.8370     1.8400 ca         1 VAC      -0.095000
     23 C38          8.6540     2.1940     3.1410 ca         1 VAC      -0.105000
     24 C39          7.2830     2.3300     3.4440 ca         1 VAC      -0.115000
     25 C40          6.3120     2.1100     2.4460 ca         1 VAC      -0.087000
     26 C45         -4.3800    -3.0320     1.3660 ca         1 VAC      -0.109000
     27 C46         -5.6290    -3.6720     1.4420 ca         1 VAC      -0.116000
     28 C47         -6.5830    -3.2450     2.3810 ca         1 VAC      -0.111000
     29 C48         -6.2890    -2.1740     3.2410 ca         1 VAC      -0.116000
     30 C49         -5.0400    -1.5350     3.1660 ca         1 VAC      -0.109000
     31 C55          4.0510    -3.0330    -1.1290 ca         1 VAC      -0.109000
     32 C56          5.2370    -3.7050    -1.4690 ca         1 VAC      -0.116000
     33 C57          5.9630    -3.3190    -2.6090 ca         1 VAC      -0.111000
     34 C58          5.5030    -2.2580    -3.4060 ca         1 VAC      -0.116000
     35 C59          4.3160    -1.5860    -3.0660 ca         1 VAC      -0.109000
     36 C68         -8.3170     1.2110    -0.2660 c5         1 VAC      -0.032100
     37 C69         -7.0370     0.6370     0.4610 c5         1 VAC       0.155800
     38 O70         -6.9600    -0.7840     0.2590 oh         1 VAC      -0.658500
     39 C71         -5.8240     1.4490    -0.1950 c5         1 VAC       0.119000
     40 C73         -6.3700     1.6980    -1.5770 ca         1 VAC      -0.106800
     41 C76         -7.7450     1.5750    -1.6140 ca         1 VAC      -0.069800
     42 C77         -5.6440     2.0470    -2.7270 ca         1 VAC      -0.087000
     43 C78         -6.3420     2.2620    -3.9320 ca         1 VAC      -0.115000
     44 C79         -7.7470     2.1320    -3.9710 ca         1 VAC      -0.105000
     45 C80         -8.4580     1.7880    -2.8040 ca         1 VAC      -0.095000
     46 N86         -4.6390     0.5780    -0.1400 ns         1 VAC      -0.494400
     47 H1          -0.2670    -1.0920    -0.2770 h1         1 VAC       0.071700
     48 HO2          0.6450    -0.4200     2.3690 ho         1 VAC       0.442000
     49 H31         -1.0960     1.0430     1.7600 hc         1 VAC       0.059950
     50 H32         -1.3730     1.2080     0.0400 hc         1 VAC       0.059950
     51 H41          0.8460     1.0700    -0.8480 hc         1 VAC       0.059950
     52 H42          1.4230     1.2280     0.8000 hc         1 VAC       0.059950
     53 H6           2.7850    -0.8770     0.5010 hc         1 VAC       0.056700
     54 H9          -2.6970    -0.9220     0.0310 hc         1 VAC       0.056700
     55 H121         1.5250    -1.9900    -1.3120 hc         1 VAC       0.064700
     56 H122         1.9060    -0.6900    -2.4230 hc         1 VAC       0.064700
     57 HN19         4.6700    -0.0730     0.9240 hn         1 VAC       0.321000
     58 H20          5.6070     2.4520    -0.5140 h1         1 VAC       0.095200
     59 H21          6.6740     0.8610    -2.0340 h1         1 VAC       0.049200
     60 HO22         6.0220    -1.0850    -1.1450 ho         1 VAC       0.451500
     61 H261         9.1070     0.5050    -0.7170 hc         1 VAC       0.065700
     62 H262         8.5600     2.1180    -1.1870 hc         1 VAC       0.065700
     63 H311        -1.9410    -2.0440     2.0810 hc         1 VAC       0.064700
     64 H312        -2.5160    -0.7190     3.0750 hc         1 VAC       0.064700
     65 H37         10.1150     1.7340     1.5990 ha         1 VAC       0.116000
     66 H38          9.4000     2.3670     3.9140 ha         1 VAC       0.112000
     67 H39          6.9730     2.6100     4.4490 ha         1 VAC       0.112500
     68 H40          5.2540     2.2210     2.6710 ha         1 VAC       0.114500
     69 H45         -3.6460    -3.3710     0.6380 ha         1 VAC       0.119000
     70 H46         -5.8570    -4.5000     0.7740 ha         1 VAC       0.116500
     71 H47         -7.5500    -3.7410     2.4390 ha         1 VAC       0.118000
     72 H48         -7.0280    -1.8410     3.9660 ha         1 VAC       0.116500
     73 H49         -4.8200    -0.7070     3.8370 ha         1 VAC       0.119000
     74 H55          3.4930    -3.3390    -0.2470 ha         1 VAC       0.119000
     75 H56          5.5940    -4.5250    -0.8500 ha         1 VAC       0.116500
     76 H57          6.8810    -3.8400    -2.8720 ha         1 VAC       0.118000
     77 H58          6.0650    -1.9560    -4.2880 ha         1 VAC       0.116500
     78 H59          3.9680    -0.7650    -3.6900 ha         1 VAC       0.119000
     79 H681        -9.1310     0.4790    -0.3250 hc         1 VAC       0.065700
     80 H682        -8.7060     2.0950     0.2520 hc         1 VAC       0.065700
     81 H69         -7.0890     0.8390     1.5400 h1         1 VAC       0.049200
     82 HO70        -6.2600    -1.1190     0.8620 ho         1 VAC       0.451500
     83 H71         -5.6770     2.4130     0.3120 h1         1 VAC       0.095200
     84 H77         -4.5620     2.1520    -2.6890 ha         1 VAC       0.114500
     85 H78         -5.7970     2.5310    -4.8340 ha         1 VAC       0.112500
     86 H79         -8.2820     2.3010    -4.9020 ha         1 VAC       0.112000
     87 H80         -9.5410     1.6910    -2.8260 ha         1 VAC       0.116000
     88 HN86        -4.4340    -0.1300    -0.8340 hn         1 VAC       0.321000
@<TRIPOS>BOND
     1     1     2 1   
     2     1     3 1   
     3     1     4 1   
     4     1    47 1   
     5     2    48 1   
     6     3     6 1   
     7     3    49 1   
     8     3    50 1   
     9     4     5 1   
    10     4    51 1   
    11     4    52 1   
    12     5     7 1   
    13     5     8 1   
    14     5    53 1   
    15     6    18 1   
    16     6    19 1   
    17     6    54 1   
    18     7    10 1   
    19     7    55 1   
    20     7    56 1   
    21     8     9 2   
    22     8    11 1   
    23    10    31 ar  
    24    10    35 ar  
    25    11    12 1   
    26    11    57 1   
    27    12    13 1   
    28    12    15 1   
    29    12    58 1   
    30    13    14 1   
    31    13    17 1   
    32    13    59 1   
    33    14    60 1   
    34    15    16 ar  
    35    15    25 ar  
    36    16    17 1   
    37    16    22 ar  
    38    17    61 1   
    39    17    62 1   
    40    18    21 2   
    41    18    46 1   
    42    19    20 1   
    43    19    63 1   
    44    19    64 1   
    45    20    26 ar  
    46    20    30 ar  
    47    22    23 ar  
    48    22    65 1   
    49    23    24 ar  
    50    23    66 1   
    51    24    25 ar  
    52    24    67 1   
    53    25    68 1   
    54    26    27 ar  
    55    26    69 1   
    56    27    28 ar  
    57    27    70 1   
    58    28    29 ar  
    59    28    71 1   
    60    29    30 ar  
    61    29    72 1   
    62    30    73 1   
    63    31    32 ar  
    64    31    74 1   
    65    32    33 ar  
    66    32    75 1   
    67    33    34 ar  
    68    33    76 1   
    69    34    35 ar  
    70    34    77 1   
    71    35    78 1   
    72    36    37 1   
    73    36    41 1   
    74    36    79 1   
    75    36    80 1   
    76    37    38 1   
    77    37    39 1   
    78    37    81 1   
    79    38    82 1   
    80    39    40 1   
    81    39    46 1   
    82    39    83 1   
    83    40    41 ar  
    84    40    42 ar  
    85    41    45 ar  
    86    42    43 ar  
    87    42    84 1   
    88    43    44 ar  
    89    43    85 1   
    90    44    45 ar  
    91    44    86 1   
    92    45    87 1   
    93    46    88 1   
@<TRIPOS>SUBSTRUCTURE
     1 VAC         1 TEMP              0 ****  ****    0 ROOT
