@<TRIPOS>MOLECULE
VAD
   17    16     1     0     0
SMALL
No Charge or Current Charge


@<TRIPOS>ATOM
      1 CA          -0.4730    -0.4330     0.0940 c3         1 VAD       0.027300
      2 CB           0.2410     0.3600     1.2370 c3         1 VAD      -0.063700
      3 CG1         -0.2760    -0.0370     2.6440 c3         1 VAD      -0.074600
      4 CG2          1.7830     0.2200     1.1800 c3         1 VAD      -0.074600
      5 C            0.1220    -0.1050    -1.3300 c          1 VAD       0.691000
      6 O           -0.2690     0.9120    -1.8910 o          1 VAD      -0.725000
      7 OXT          0.8160    -0.9480    -1.8840 o          1 VAD      -0.725000
      8 OE          -1.9060    -0.1830     0.1460 oh         1 VAD      -0.715000
      9 HA          -0.2900    -1.5010     0.2730 h1         1 VAD       0.031700
     10 HB           0.0140     1.4250     1.0960 hc         1 VAD       0.040700
     11 HG11         0.2400     0.5370     3.4220 hc         1 VAD       0.019367
     12 HG12        -1.3500     0.1610     2.7450 hc         1 VAD       0.019367
     13 HG13        -0.1030    -1.1030     2.8350 hc         1 VAD       0.019367
     14 HG21         2.0810    -0.8330     1.2540 hc         1 VAD       0.019367
     15 HG22         2.1850     0.6280     0.2450 hc         1 VAD       0.019367
     16 HG23         2.2520     0.7670     2.0060 hc         1 VAD       0.019367
     17 HOE         -2.0660     0.5740    -0.4660 ho         1 VAD       0.472000
@<TRIPOS>BOND
     1     1     2 1   
     2     1     5 1   
     3     1     8 1   
     4     1     9 1   
     5     2     3 1   
     6     2     4 1   
     7     2    10 1   
     8     3    11 1   
     9     3    12 1   
    10     3    13 1   
    11     4    14 1   
    12     4    15 1   
    13     4    16 1   
    14     5     6 1   
    15     5     7 1   
    16     8    17 1   
@<TRIPOS>SUBSTRUCTURE
     1 VAD         1 TEMP              0 ****  ****    0 ROOT
