@<TRIPOS>MOLECULE
VAD
   17    16     1     0     0
SMALL
bcc


@<TRIPOS>ATOM
      1 CA          -0.4410    -0.4090     0.1100 c3         1 VAD       0.004100
      2 CB           0.3110     0.3670     1.2080 c3         1 VAD      -0.063700
      3 CG1         -0.2820     0.0600     2.5810 c3         1 VAD      -0.074600
      4 CG2          1.8070     0.0680     1.2250 c3         1 VAD      -0.074600
      5 C           -0.0190     0.0210    -1.3160 c          1 VAD       0.901600
      6 O           -0.8730     0.7150    -1.9190 o          1 VAD      -0.830300
      7 OXT          1.0870    -0.3380    -1.7470 o          1 VAD      -0.830300
      8 OE          -1.8330    -0.2220     0.2260 oh         1 VAD      -0.652800
      9 HA          -0.2060    -1.4770     0.2370 h1         1 VAD       0.031700
     10 HB           0.1740     1.4390     1.0100 hc         1 VAD       0.040700
     11 HG11         0.2410     0.6210     3.3590 hc         1 VAD       0.019367
     12 HG12        -1.3380     0.3150     2.6430 hc         1 VAD       0.019367
     13 HG13        -0.1770    -1.0020     2.8200 hc         1 VAD       0.019367
     14 HG21         1.9870    -0.9990     1.3840 hc         1 VAD       0.019367
     15 HG22         2.3000     0.3520     0.2990 hc         1 VAD       0.019367
     16 HG23         2.2890     0.6050     2.0440 hc         1 VAD       0.019367
     17 HOE         -2.0260     0.3240    -0.5590 ho         1 VAD       0.433000
@<TRIPOS>BOND
     1     1     2 1   
     2     1     5 1   
     3     1     8 1   
     4     1     9 1   
     5     2     3 1   
     6     2     4 1   
     7     2    10 1   
     8     3    11 1   
     9     3    12 1   
    10     3    13 1   
    11     4    14 1   
    12     4    15 1   
    13     4    16 1   
    14     5     6 1   
    15     5     7 1   
    16     8    17 1   
@<TRIPOS>SUBSTRUCTURE
     1 VAD         1 TEMP              0 ****  ****    0 ROOT
