@<TRIPOS>MOLECULE
VAG
  132   139     1     0     0
SMALL
No Charge or Current Charge


@<TRIPOS>ATOM
      1 C1          16.2720    11.1430    11.4020 c3         1 VAG       0.073900
      2 N2          17.6490    10.9370    10.7480 ny         1 VAG      -0.807000
      3 C3          17.6800    10.8530     9.2060 c3         1 VAG       0.006300
      4 C6          19.0920    10.4580     8.7050 c3         1 VAG      -0.107400
      5 C7          19.5540     9.0320     9.1090 c3         1 VAG      -0.059700
      6 C8          21.0170     8.7860     8.6800 c3         1 VAG      -0.102600
      7 C9          18.6240     7.9310     8.5470 c3         1 VAG      -0.102600
      8 C4          17.1880    12.1660     8.5300 c          1 VAG       0.590100
      9 O5          17.8120    13.2150     8.5870 o          1 VAG      -0.578100
     10 N10         16.0020    12.0590     7.8400 ns         1 VAG      -0.469900
     11 C11         15.2840    13.2030     7.2030 c3         1 VAG       0.013700
     12 C14         13.7570    12.9440     7.0550 c3         1 VAG       0.220600
     13 O15         13.1840    12.7010     8.3450 oh         1 VAG      -0.676000
     14 C16         13.4710    11.7610     6.1290 ca         1 VAG      -0.154300
     15 C17         13.1700    11.9990     4.7700 ca         1 VAG      -0.065000
     16 C19         13.0570    10.9300     3.8650 ca         1 VAG       0.105000
     17 Cl2         12.7970    11.2690     2.1550 cl         1 VAG      -0.139000
     18 C21         13.2530     9.6110     4.3170 ca         1 VAG       0.122100
     19 O22         13.4130     8.5820     3.4210 os         1 VAG      -0.210200
     20 C20         13.4880     9.3620     5.6790 ca         1 VAG      -0.126000
     21 C18         13.5860    10.4290     6.5840 ca         1 VAG      -0.118000
     22 C12         15.9130    13.6110     5.8430 c          1 VAG       0.603100
     23 O13         15.4880    14.5490     5.1850 o          1 VAG      -0.546100
     24 N24         16.9950    12.8600     5.4130 ns         1 VAG      -0.511900
     25 C25         17.9100    13.2470     4.3070 c3         1 VAG       0.034700
     26 C28         19.1230    14.0280     4.8880 c3         1 VAG      -0.181400
     27 C29         18.7270    15.3960     5.4400 c          1 VAG       0.597100
     28 O30         18.6150    16.3850     4.7360 o          1 VAG      -0.587100
     29 N31         18.5160    15.4770     6.7700 nt         1 VAG      -0.612000
     30 C26         18.3660    12.0360     3.4300 c          1 VAG       0.590100
     31 O27         19.1560    12.1640     2.5050 o          1 VAG      -0.569100
     32 N32         17.8580    10.7960     3.7600 ns         1 VAG      -0.481900
     33 C33         18.2620     9.5230     3.1150 c3         1 VAG       0.082000
     34 C36         17.0970     8.5020     3.1360 ca         1 VAG      -0.086300
     35 C38         15.7640     8.9590     3.1290 ca         1 VAG      -0.133000
     36 C40         14.6810     8.0670     3.2580 ca         1 VAG       0.079100
     37 C41         14.9130     6.6790     3.3430 ca         1 VAG       0.139100
     38 O42         13.8720     5.7990     3.4960 oh         1 VAG      -0.506100
     39 C39         16.2370     6.1990     3.3150 ca         1 VAG       0.054100
     40 C37         17.3170     7.1060     3.2040 ca         1 VAG      -0.122000
     41 C34         19.5290     8.9860     3.8490 c          1 VAG       0.587100
     42 O35         19.7120     9.1370     5.0520 o          1 VAG      -0.646100
     43 N43         20.3970     8.2390     3.0800 ns         1 VAG      -0.471900
     44 C44         21.3670     7.2870     3.6470 c3         1 VAG       0.085000
     45 C47         22.6820     7.9380     4.0860 ca         1 VAG      -0.161300
     46 C48         23.0990     7.8330     5.4260 ca         1 VAG      -0.056000
     47 C50         24.3870     8.2480     5.8360 cp         1 VAG      -0.036000
     48 C52         25.2410     8.8430     4.8730 ca         1 VAG       0.188100
     49 O53         26.4980     9.2570     5.2100 oh         1 VAG      -0.503100
     50 C51         24.8110     8.9960     3.5430 ca         1 VAG      -0.208000
     51 C49         23.5420     8.5360     3.1470 ca         1 VAG      -0.035000
     52 C45         21.6390     6.1090     2.6520 c          1 VAG       0.596100
     53 O46         21.2750     6.1390     1.4840 o          1 VAG      -0.623100
     54 N54         22.4120     5.0560     3.0940 ns         1 VAG      -0.465900
     55 C55         22.5540     4.6180     4.5100 c3         1 VAG       0.031700
     56 C58         21.7980     3.2910     4.7760 c3         1 VAG       0.212600
     57 O59         22.3430     2.2320     3.9790 oh         1 VAG      -0.624000
     58 C60         20.3120     3.5140     4.4640 ca         1 VAG      -0.118300
     59 C61         19.7820     3.2790     3.1740 ca         1 VAG      -0.068000
     60 C63         18.4740     3.6840     2.8560 ca         1 VAG      -0.098000
     61 C65         17.6830     4.3300     3.8170 ca         1 VAG       0.095100
     62 O66         16.4580     4.8360     3.4400 os         1 VAG      -0.254200
     63 C64         18.1810     4.5210     5.1240 ca         1 VAG       0.089000
     64 Cl6         17.2110     5.3170     6.3640 cl         1 VAG      -0.206000
     65 C62         19.4890     4.1170     5.4400 ca         1 VAG      -0.095000
     66 C56         24.0450     4.6200     4.9280 c          1 VAG       0.592100
     67 O57         24.9680     4.3910     4.1540 o          1 VAG      -0.565100
     68 N68         24.2680     5.0400     6.2260 ns         1 VAG      -0.450900
     69 C69         25.5520     5.6200     6.6900 c3         1 VAG      -0.012000
     70 C72         25.3270     6.7700     7.6930 ca         1 VAG       0.040700
     71 C73         24.8080     8.0300     7.2560 cp         1 VAG      -0.110000
     72 C75         24.6530     9.0760     8.2010 ca         1 VAG       0.160100
     73 O79         24.1740    10.2960     7.8250 oh         1 VAG      -0.538100
     74 C76         24.9800     8.8830     9.5470 ca         1 VAG      -0.270000
     75 C77         25.4610     7.6450     9.9760 ca         1 VAG       0.165100
     76 O78         25.7630     7.4710    11.2920 oh         1 VAG      -0.551100
     77 C74         25.6340     6.5960     9.0630 ca         1 VAG      -0.195000
     78 C70         26.5440     4.5170     7.1760 c          1 VAG       0.725000
     79 O71         27.7360     4.6790     6.9500 o          1 VAG      -0.701500
     80 O80         26.1030     3.5410     7.7720 o          1 VAG      -0.701500
     81 H11A        16.3770    11.1920    12.4910 hx         1 VAG       0.103033
     82 H12         15.8270    12.0760    11.0440 hx         1 VAG       0.103033
     83 H13         15.6120    10.3110    11.1440 hx         1 VAG       0.103033
     84 HN21        18.2930    11.6980    11.0650 hn         1 VAG       0.517000
     85 HN22        18.0950    10.0890    11.1600 hn         1 VAG       0.517000
     86 H3          16.9780    10.0760     8.8940 hx         1 VAG       0.114700
     87 H61A        19.1120    10.5300     7.6100 hc         1 VAG       0.088200
     88 H62A        19.8180    11.1960     9.0700 hc         1 VAG       0.088200
     89 H7          19.5300     8.9570    10.2020 hc         1 VAG       0.018700
     90 H81         21.3500     7.7830     8.9740 hc         1 VAG       0.055200
     91 H82         21.1270     8.8810     7.5940 hc         1 VAG       0.055200
     92 H83         21.6860     9.5130     9.1560 hc         1 VAG       0.055200
     93 H91         18.9900     6.9350     8.8230 hc         1 VAG       0.055200
     94 H92         17.6060     8.0290     8.9420 hc         1 VAG       0.055200
     95 H93         18.5740     7.9830     7.4520 hc         1 VAG       0.055200
     96 HN0         15.5240    11.1660     7.8800 hn         1 VAG       0.332500
     97 H11         15.4070    14.0800     7.8510 h1         1 VAG       0.124700
     98 H14         13.3020    13.8470     6.6190 h1         1 VAG       0.088700
     99 HO5         12.2560    12.4170     8.1880 ho         1 VAG       0.468000
    100 H17         13.0750    13.0170     4.3970 ha         1 VAG       0.156000
    101 H20         13.6490     8.3430     6.0220 ha         1 VAG       0.136000
    102 H18         13.7980    10.2130     7.6290 ha         1 VAG       0.101000
    103 HN4         17.2910    12.1270     6.0460 hn         1 VAG       0.309500
    104 H25         17.3680    13.9030     3.6090 h1         1 VAG       0.135700
    105 H281        19.5630    13.4180     5.6860 hc         1 VAG       0.085700
    106 H282        19.8570    14.1900     4.0900 hc         1 VAG       0.085700
    107 HN11        18.5630    14.6480     7.3490 hn         1 VAG       0.315500
    108 HN12        18.2590    16.3650     7.1740 hn         1 VAG       0.315500
    109 HN3         17.2030    10.7570     4.5300 hn         1 VAG       0.313500
    110 H33         18.5390     9.7180     2.0710 h1         1 VAG       0.114700
    111 H38         15.5580    10.0230     3.0530 ha         1 VAG       0.136000
    112 H42         14.2580     4.8990     3.5550 ho         1 VAG       0.488000
    113 H37         18.3270     6.7140     3.1880 ha         1 VAG       0.141000
    114 HN43        20.1910     8.1610     2.0890 hn         1 VAG       0.351500
    115 H44         20.8760     6.8450     4.5220 h1         1 VAG       0.066700
    116 H48         22.4410     7.3780     6.1620 ha         1 VAG       0.096000
    117 HO3         26.9150     9.6480     4.4160 ho         1 VAG       0.463000
    118 H51         25.4660     9.4460     2.8020 ha         1 VAG       0.117000
    119 H49         23.2400     8.6210     2.1040 ha         1 VAG       0.121000
    120 HN5         22.6580     4.3790     2.3820 hn         1 VAG       0.347500
    121 H55         22.0750     5.3490     5.1640 h1         1 VAG       0.053700
    122 H58         21.9010     3.0430     5.8420 h1         1 VAG       0.063700
    123 HO9         21.8310     1.4220     4.1940 ho         1 VAG       0.454000
    124 H61         20.3980     2.8370     2.3930 ha         1 VAG       0.145000
    125 H63         18.0920     3.5420     1.8480 ha         1 VAG       0.143000
    126 H62         19.8790     4.3180     6.4360 ha         1 VAG       0.129000
    127 HN8         23.4550     5.1760     6.8130 hn         1 VAG       0.285500
    128 H69         26.0410     6.0660     5.8150 h1         1 VAG       0.084700
    129 HO7         24.1850    10.8790     8.6110 ho         1 VAG       0.445000
    130 H76         24.8540     9.6870    10.2670 ha         1 VAG       0.110000
    131 HO8         26.0880     6.5540    11.4200 ho         1 VAG       0.475000
    132 H74         26.0090     5.6440     9.4260 ha         1 VAG       0.157000
@<TRIPOS>BOND
     1     1     2 1   
     2     1    81 1   
     3     1    82 1   
     4     1    83 1   
     5     2     3 1   
     6     2    84 1   
     7     2    85 1   
     8     3     4 1   
     9     3     8 1   
    10     3    86 1   
    11     4     5 1   
    12     4    87 1   
    13     4    88 1   
    14     5     6 1   
    15     5     7 1   
    16     5    89 1   
    17     6    90 1   
    18     6    91 1   
    19     6    92 1   
    20     7    93 1   
    21     7    94 1   
    22     7    95 1   
    23     8     9 2   
    24     8    10 1   
    25    10    11 1   
    26    10    96 1   
    27    11    12 1   
    28    11    22 1   
    29    11    97 1   
    30    12    13 1   
    31    12    14 1   
    32    12    98 1   
    33    13    99 1   
    34    14    15 ar  
    35    14    21 ar  
    36    15    16 ar  
    37    15   100 1   
    38    16    17 1   
    39    16    18 ar  
    40    18    19 1   
    41    18    20 ar  
    42    19    36 1   
    43    20    21 ar  
    44    20   101 1   
    45    21   102 1   
    46    22    23 2   
    47    22    24 1   
    48    24    25 1   
    49    24   103 1   
    50    25    26 1   
    51    25    30 1   
    52    25   104 1   
    53    26    27 1   
    54    26   105 1   
    55    26   106 1   
    56    27    28 2   
    57    27    29 1   
    58    29   107 1   
    59    29   108 1   
    60    30    31 2   
    61    30    32 1   
    62    32    33 1   
    63    32   109 1   
    64    33    34 1   
    65    33    41 1   
    66    33   110 1   
    67    34    35 ar  
    68    34    40 ar  
    69    35    36 ar  
    70    35   111 1   
    71    36    37 ar  
    72    37    38 1   
    73    37    39 ar  
    74    38   112 1   
    75    39    40 ar  
    76    39    62 1   
    77    40   113 1   
    78    41    42 2   
    79    41    43 1   
    80    43    44 1   
    81    43   114 1   
    82    44    45 1   
    83    44    52 1   
    84    44   115 1   
    85    45    46 ar  
    86    45    51 ar  
    87    46    47 ar  
    88    46   116 1   
    89    47    48 ar  
    90    47    71 1   
    91    48    49 1   
    92    48    50 ar  
    93    49   117 1   
    94    50    51 ar  
    95    50   118 1   
    96    51   119 1   
    97    52    53 2   
    98    52    54 1   
    99    54    55 1   
   100    54   120 1   
   101    55    56 1   
   102    55    66 1   
   103    55   121 1   
   104    56    57 1   
   105    56    58 1   
   106    56   122 1   
   107    57   123 1   
   108    58    59 ar  
   109    58    65 ar  
   110    59    60 ar  
   111    59   124 1   
   112    60    61 ar  
   113    60   125 1   
   114    61    62 1   
   115    61    63 ar  
   116    63    64 1   
   117    63    65 ar  
   118    65   126 1   
   119    66    67 2   
   120    66    68 1   
   121    68    69 1   
   122    68   127 1   
   123    69    70 1   
   124    69    78 1   
   125    69   128 1   
   126    70    71 ar  
   127    70    77 ar  
   128    71    72 ar  
   129    72    73 1   
   130    72    74 ar  
   131    73   129 1   
   132    74    75 ar  
   133    74   130 1   
   134    75    76 1   
   135    75    77 ar  
   136    76   131 1   
   137    77   132 1   
   138    78    79 1   
   139    78    80 1   
@<TRIPOS>SUBSTRUCTURE
     1 VAG         1 TEMP              0 ****  ****    0 ROOT
