@<TRIPOS>MOLECULE
VAG
  132   139     1     0     0
SMALL
abcg2


@<TRIPOS>ATOM
      1 C1          15.9270    10.4450    11.3160 c3         1 VAG       0.073900
      2 N2          17.3020    10.6380    10.7910 ny         1 VAG      -0.807000
      3 C3          17.3980    10.6400     9.3060 c3         1 VAG       0.006300
      4 C6          18.8430    10.4530     8.8450 c3         1 VAG      -0.107400
      5 C7          19.4740     9.0920     9.1590 c3         1 VAG      -0.059700
      6 C8          20.9250     9.1090     8.6900 c3         1 VAG      -0.102600
      7 C9          18.7100     7.9360     8.5240 c3         1 VAG      -0.102600
      8 C4          16.8640    11.9920     8.8340 c          1 VAG       0.590100
      9 O5          16.9810    12.9800     9.5340 o          1 VAG      -0.578100
     10 N10         16.3300    11.9730     7.6030 ns         1 VAG      -0.469900
     11 C11         15.6450    13.0930     7.0120 c3         1 VAG       0.013700
     12 C14         14.1070    12.9150     7.0880 c3         1 VAG       0.220600
     13 O15         13.8130    12.8020     8.4530 oh         1 VAG      -0.676000
     14 C16         13.6790    11.7050     6.2910 ca         1 VAG      -0.154300
     15 C17         13.2560    11.8520     4.9760 ca         1 VAG      -0.065000
     16 C19         13.0980    10.7390     4.1680 ca         1 VAG       0.105000
     17 CL2         12.6590    10.9240     2.5100 cl         1 VAG      -0.139000
     18 C21         13.3710     9.4700     4.6610 ca         1 VAG       0.122100
     19 O22         13.4280     8.4030     3.8090 os         1 VAG      -0.210200
     20 C20         13.6730     9.3110     6.0040 ca         1 VAG      -0.126000
     21 C18         13.8110    10.4210     6.8190 ca         1 VAG      -0.118000
     22 C12         16.1260    13.3830     5.5890 c          1 VAG       0.603100
     23 O13         15.4530    14.0520     4.8300 o          1 VAG      -0.546100
     24 N24         17.3400    12.8800     5.2820 ns         1 VAG      -0.511900
     25 C25         18.0440    13.1710     4.0560 c3         1 VAG       0.034700
     26 C28         19.3760    13.8560     4.3680 c3         1 VAG      -0.181400
     27 C29         19.1490    15.1380     5.1440 c          1 VAG       0.597100
     28 O30         18.3430    15.9750     4.7650 o          1 VAG      -0.587100
     29 N31         19.8930    15.2780     6.2480 nt         1 VAG      -0.612000
     30 C26         18.3160    11.9390     3.1870 c          1 VAG       0.590100
     31 O27         18.9760    12.0500     2.1690 o          1 VAG      -0.569100
     32 N32         17.7940    10.7750     3.6150 ns         1 VAG      -0.481900
     33 C33         18.1740     9.5070     3.0490 c3         1 VAG       0.082000
     34 C36         17.0450     8.4880     3.1710 ca         1 VAG      -0.086300
     35 C38         15.7410     8.9150     3.3640 ca         1 VAG      -0.133000
     36 C40         14.7130     7.9990     3.5430 ca         1 VAG       0.079100
     37 C41         14.9570     6.6310     3.5330 ca         1 VAG       0.139100
     38 O42         13.9440     5.7860     3.7730 oh         1 VAG      -0.506100
     39 C39         16.2690     6.2160     3.2990 ca         1 VAG       0.054100
     40 C37         17.2990     7.1200     3.1130 ca         1 VAG      -0.122000
     41 C34         19.3970     8.9770     3.8100 c          1 VAG       0.587100
     42 O35         19.4740     9.1000     5.0200 o          1 VAG      -0.646100
     43 N43         20.3120     8.3320     3.0730 ns         1 VAG      -0.471900
     44 C44         21.2750     7.4610     3.6970 c3         1 VAG       0.085000
     45 C47         22.5740     8.1040     4.1370 ca         1 VAG      -0.161300
     46 C48         22.9980     7.9660     5.4510 ca         1 VAG      -0.056000
     47 C50         24.2650     8.3500     5.8730 cp         1 VAG      -0.036000
     48 C52         25.1130     8.9630     4.9490 ca         1 VAG       0.188100
     49 O53         26.3340     9.3310     5.3740 oh         1 VAG      -0.503100
     50 C51         24.6800     9.1630     3.6370 ca         1 VAG      -0.208000
     51 C49         23.4320     8.7220     3.2320 ca         1 VAG      -0.035000
     52 C45         21.6130     6.3460     2.7020 c          1 VAG       0.596100
     53 O46         21.4180     6.5050     1.5070 o          1 VAG      -0.623100
     54 N54         22.1810     5.2330     3.1920 ns         1 VAG      -0.465900
     55 C55         22.3660     4.8610     4.5680 c3         1 VAG       0.031700
     56 C58         21.7160     3.4920     4.8480 c3         1 VAG       0.212600
     57 O59         22.3980     2.5410     4.0850 oh         1 VAG      -0.624000
     58 C60         20.2500     3.6360     4.4970 ca         1 VAG      -0.118300
     59 C61         19.7760     3.3470     3.2240 ca         1 VAG      -0.068000
     60 C63         18.5010     3.7380     2.8420 ca         1 VAG      -0.098000
     61 C65         17.6810     4.4060     3.7350 ca         1 VAG       0.095100
     62 O66         16.4610     4.8570     3.3170 os         1 VAG      -0.254200
     63 C64         18.1180     4.6100     5.0420 ca         1 VAG       0.089000
     64 CL6         17.0660     5.3550     6.1890 cl         1 VAG      -0.206000
     65 C62         19.3950     4.2320     5.4170 ca         1 VAG      -0.095000
     66 C56         23.8540     4.9550     4.9300 c          1 VAG       0.592100
     67 O57         24.7190     4.8820     4.0730 o          1 VAG      -0.565100
     68 N68         24.1050     5.2180     6.2190 ns         1 VAG      -0.450900
     69 C69         25.3880     5.7390     6.6480 c3         1 VAG      -0.012000
     70 C72         25.1610     6.8330     7.6800 ca         1 VAG       0.040700
     71 C73         24.6780     8.0820     7.2730 cp         1 VAG      -0.110000
     72 C75         24.5200     9.0870     8.2310 ca         1 VAG       0.160100
     73 O79         24.0800    10.2830     7.7960 oh         1 VAG      -0.538100
     74 C76         24.8000     8.8540     9.5710 ca         1 VAG      -0.270000
     75 C77         25.2400     7.5980     9.9660 ca         1 VAG       0.165100
     76 O78         25.4820     7.4120    11.2780 oh         1 VAG      -0.551100
     77 C74         25.4200     6.5900     9.0240 ca         1 VAG      -0.195000
     78 C70         26.3980     4.6580     7.1220 c          1 VAG       0.725000
     79 O71         27.5800     5.0460     7.1550 o          1 VAG      -0.701500
     80 O80         25.9450     3.5430     7.4260 o          1 VAG      -0.701500
     81 H11A        15.9640    10.4960    12.3990 hx         1 VAG       0.103033
     82 H12         15.2790    11.2270    10.9330 hx         1 VAG       0.103033
     83 H13         15.5680     9.4710    10.9980 hx         1 VAG       0.103033
     84 HN21        17.6780    11.5240    11.1410 hn         1 VAG       0.517000
     85 HN22        17.9040     9.9080    11.1760 hn         1 VAG       0.517000
     86 H3          16.7650     9.8260     8.9490 hx         1 VAG       0.114700
     87 H61A        18.8560    10.5970     7.7600 hc         1 VAG       0.088200
     88 H62A        19.4520    11.2560     9.2710 hc         1 VAG       0.088200
     89 H7          19.4920     8.9390    10.2450 hc         1 VAG       0.018700
     90 H81         21.4270     8.1740     8.9410 hc         1 VAG       0.055200
     91 H82         20.9850     9.2350     7.6070 hc         1 VAG       0.055200
     92 H83         21.4850     9.9220     9.1530 hc         1 VAG       0.055200
     93 H91         19.2260     6.9920     8.7070 hc         1 VAG       0.055200
     94 H92         17.6990     7.8270     8.9220 hc         1 VAG       0.055200
     95 H93         18.6300     8.0670     7.4440 hc         1 VAG       0.055200
     96 HN0         16.2400    11.0770     7.1430 hn         1 VAG       0.332500
     97 H11         15.8970    13.9820     7.5990 h1         1 VAG       0.124700
     98 H14         13.6540    13.8130     6.6530 h1         1 VAG       0.088700
     99 HO5         12.8570    12.7360     8.5560 ho         1 VAG       0.468000
    100 H17         13.0960    12.8380     4.5600 ha         1 VAG       0.156000
    101 H20         13.8460     8.3170     6.3970 ha         1 VAG       0.136000
    102 H18         14.0630    10.2780     7.8620 ha         1 VAG       0.101000
    103 HN4         17.8680    12.4370     6.0220 hn         1 VAG       0.309500
    104 H25         17.4220    13.8440     3.4640 h1         1 VAG       0.135700
    105 H281        20.0310    13.1680     4.9090 hc         1 VAG       0.085700
    106 H282        19.8810    14.1110     3.4350 hc         1 VAG       0.085700
    107 HN11        20.5490    14.5750     6.5420 hn         1 VAG       0.315500
    108 HN12        19.8310    16.1170     6.8030 hn         1 VAG       0.315500
    109 HN3         17.3590    10.7590     4.5260 hn         1 VAG       0.313500
    110 H33         18.4160     9.6610     1.9940 h1         1 VAG       0.114700
    111 H38         15.5230     9.9740     3.3920 ha         1 VAG       0.136000
    112 H42         14.2640     4.8750     3.7980 ho         1 VAG       0.488000
    113 H37         18.3000     6.7460     2.9430 ha         1 VAG       0.141000
    114 HN43        20.2110     8.2690     2.0690 hn         1 VAG       0.351500
    115 H44         20.7880     7.0380     4.5790 h1         1 VAG       0.066700
    116 H48         22.3340     7.5210     6.1830 ha         1 VAG       0.096000
    117 HO3         26.8420     9.7220     4.6540 ho         1 VAG       0.463000
    118 H51         25.3360     9.6450     2.9200 ha         1 VAG       0.117000
    119 H49         23.1380     8.8550     2.1980 ha         1 VAG       0.121000
    120 HN5         22.4880     4.5660     2.4970 hn         1 VAG       0.347500
    121 H55         21.8310     5.5600     5.2050 h1         1 VAG       0.053700
    122 H58         21.8110     3.2960     5.9250 h1         1 VAG       0.063700
    123 HO9         22.0460     1.6660     4.2810 ho         1 VAG       0.454000
    124 H61         20.4130     2.8590     2.4990 ha         1 VAG       0.145000
    125 H63         18.1500     3.5580     1.8340 ha         1 VAG       0.143000
    126 H62         19.7360     4.4380     6.4260 ha         1 VAG       0.129000
    127 HN8         23.3360     5.2610     6.8690 hn         1 VAG       0.285500
    128 H69         25.8370     6.2140     5.7710 h1         1 VAG       0.084700
    129 HO7         23.9710    10.8930     8.5350 ho         1 VAG       0.445000
    130 H76         24.6740     9.6400    10.3090 ha         1 VAG       0.110000
    131 HO8         25.7980     6.5150    11.4350 ho         1 VAG       0.475000
    132 H74         25.7630     5.6150     9.3500 ha         1 VAG       0.157000
@<TRIPOS>BOND
     1     1     2 1   
     2     1    81 1   
     3     1    82 1   
     4     1    83 1   
     5     2     3 1   
     6     2    84 1   
     7     2    85 1   
     8     3     4 1   
     9     3     8 1   
    10     3    86 1   
    11     4     5 1   
    12     4    87 1   
    13     4    88 1   
    14     5     6 1   
    15     5     7 1   
    16     5    89 1   
    17     6    90 1   
    18     6    91 1   
    19     6    92 1   
    20     7    93 1   
    21     7    94 1   
    22     7    95 1   
    23     8     9 2   
    24     8    10 1   
    25    10    11 1   
    26    10    96 1   
    27    11    12 1   
    28    11    22 1   
    29    11    97 1   
    30    12    13 1   
    31    12    14 1   
    32    12    98 1   
    33    13    99 1   
    34    14    15 ar  
    35    14    21 ar  
    36    15    16 ar  
    37    15   100 1   
    38    16    17 1   
    39    16    18 ar  
    40    18    19 1   
    41    18    20 ar  
    42    19    36 1   
    43    20    21 ar  
    44    20   101 1   
    45    21   102 1   
    46    22    23 2   
    47    22    24 1   
    48    24    25 1   
    49    24   103 1   
    50    25    26 1   
    51    25    30 1   
    52    25   104 1   
    53    26    27 1   
    54    26   105 1   
    55    26   106 1   
    56    27    28 2   
    57    27    29 1   
    58    29   107 1   
    59    29   108 1   
    60    30    31 2   
    61    30    32 1   
    62    32    33 1   
    63    32   109 1   
    64    33    34 1   
    65    33    41 1   
    66    33   110 1   
    67    34    35 ar  
    68    34    40 ar  
    69    35    36 ar  
    70    35   111 1   
    71    36    37 ar  
    72    37    38 1   
    73    37    39 ar  
    74    38   112 1   
    75    39    40 ar  
    76    39    62 1   
    77    40   113 1   
    78    41    42 2   
    79    41    43 1   
    80    43    44 1   
    81    43   114 1   
    82    44    45 1   
    83    44    52 1   
    84    44   115 1   
    85    45    46 ar  
    86    45    51 ar  
    87    46    47 ar  
    88    46   116 1   
    89    47    48 ar  
    90    47    71 1   
    91    48    49 1   
    92    48    50 ar  
    93    49   117 1   
    94    50    51 ar  
    95    50   118 1   
    96    51   119 1   
    97    52    53 2   
    98    52    54 1   
    99    54    55 1   
   100    54   120 1   
   101    55    56 1   
   102    55    66 1   
   103    55   121 1   
   104    56    57 1   
   105    56    58 1   
   106    56   122 1   
   107    57   123 1   
   108    58    59 ar  
   109    58    65 ar  
   110    59    60 ar  
   111    59   124 1   
   112    60    61 ar  
   113    60   125 1   
   114    61    62 1   
   115    61    63 ar  
   116    63    64 1   
   117    63    65 ar  
   118    65   126 1   
   119    66    67 2   
   120    66    68 1   
   121    68    69 1   
   122    68   127 1   
   123    69    70 1   
   124    69    78 1   
   125    69   128 1   
   126    70    71 ar  
   127    70    77 ar  
   128    71    72 ar  
   129    72    73 1   
   130    72    74 ar  
   131    73   129 1   
   132    74    75 ar  
   133    74   130 1   
   134    75    76 1   
   135    75    77 ar  
   136    76   131 1   
   137    77   132 1   
   138    78    79 1   
   139    78    80 1   
@<TRIPOS>SUBSTRUCTURE
     1 VAG         1 TEMP              0 ****  ****    0 ROOT
