@<TRIPOS>MOLECULE
VAH
   19    18     1     0     0
SMALL
No Charge or Current Charge


@<TRIPOS>ATOM
      1 C           24.7950    -1.1540   -10.6820 c          1 VAH       0.929600
      2 N           27.0530    -2.0710   -11.7640 n8         1 VAH      -0.886800
      3 O           23.5790    -1.0040   -10.7800 o          1 VAH      -0.828300
      4 CA          25.6070    -1.6460   -11.9630 c3         1 VAH      -0.013500
      5 CB          24.8090    -2.7220   -12.7760 c3         1 VAH       0.185100
      6 CG2         24.6060    -4.0610   -12.0140 c3         1 VAH      -0.099400
      7 OG1         23.5340    -2.1890   -13.1480 oh         1 VAH      -0.668800
      8 OXT         25.3990    -0.9360    -9.6350 o          1 VAH      -0.828300
      9 H           27.5190    -2.1470   -12.6740 hn         1 VAH       0.327300
     10 H2          27.5570    -1.3260   -11.2720 hn         1 VAH       0.327300
     11 HA          25.6700    -0.7570   -12.6050 h1         1 VAH       0.009700
     12 HB          25.3800    -2.9440   -13.6880 h1         1 VAH       0.010700
     13 HD11        23.8760    -6.1000   -12.2730 hc         1 VAH       0.014033
     14 HD12        22.9250    -4.8880   -13.1530 hc         1 VAH       0.014033
     15 HD13        24.5260    -5.3760   -13.7590 hc         1 VAH       0.014033
     16 HG21        25.5810    -4.4300   -11.6740 hc         1 VAH       0.053200
     17 HG22        24.0060    -3.8890   -11.1120 hc         1 VAH       0.053200
     18 HOG1        23.2320    -1.6990   -12.3360 ho         1 VAH       0.465000
     19 CD1         23.9410    -5.1730   -12.8540 c3         1 VAH      -0.077100
@<TRIPOS>BOND
     1     1     3 1   
     2     1     4 1   
     3     1     8 1   
     4     2     4 1   
     5     2     9 1   
     6     2    10 1   
     7     4     5 1   
     8     4    11 1   
     9     5     6 1   
    10     5     7 1   
    11     5    12 1   
    12     6    16 1   
    13     6    17 1   
    14     6    19 1   
    15     7    18 1   
    16    13    19 1   
    17    14    19 1   
    18    15    19 1   
@<TRIPOS>SUBSTRUCTURE
     1 VAH         1 TEMP              0 ****  ****    0 ROOT
