@<TRIPOS>MOLECULE
VAH
   19    18     1     0     0
SMALL
bcc


@<TRIPOS>ATOM
      1 C           24.8730    -1.2080   -10.7330 c          1 VAH       0.929600
      2 N           26.9380    -2.1140   -11.7640 n8         1 VAH      -0.886800
      3 O           23.6230    -1.0650   -10.8250 o          1 VAH      -0.828300
      4 CA          25.5900    -1.6490   -12.0300 c3         1 VAH      -0.013500
      5 CB          24.7850    -2.7220   -12.7900 c3         1 VAH       0.185100
      6 CG2         24.6430    -4.0280   -12.0110 c3         1 VAH      -0.099400
      7 OG1         23.5320    -2.2010   -13.1750 oh         1 VAH      -0.668800
      8 OXT         25.5560    -0.9870    -9.7240 o          1 VAH      -0.828300
      9 H           27.5010    -2.0290   -12.6010 hn         1 VAH       0.327300
     10 H2          27.3580    -1.5160   -11.0650 hn         1 VAH       0.327300
     11 HA          25.5820    -0.7540   -12.6780 h1         1 VAH       0.009700
     12 HB          25.3350    -2.9500   -13.7140 h1         1 VAH       0.010700
     13 HD11        23.8860    -6.0500   -12.2410 hc         1 VAH       0.014033
     14 HD12        22.9510    -4.8380   -13.1090 hc         1 VAH       0.014033
     15 HD13        24.5170    -5.3520   -13.7280 hc         1 VAH       0.014033
     16 HG21        25.6370    -4.3620   -11.7040 hc         1 VAH       0.053200
     17 HG22        24.0800    -3.8470   -11.0890 hc         1 VAH       0.053200
     18 HOG1        23.2490    -1.7160   -12.3670 ho         1 VAH       0.465000
     19 CD1         23.9600    -5.1250   -12.8160 c3         1 VAH      -0.077100
@<TRIPOS>BOND
     1     1     3 1   
     2     1     4 1   
     3     1     8 1   
     4     2     4 1   
     5     2     9 1   
     6     2    10 1   
     7     4     5 1   
     8     4    11 1   
     9     5     6 1   
    10     5     7 1   
    11     5    12 1   
    12     6    16 1   
    13     6    17 1   
    14     6    19 1   
    15     7    18 1   
    16    13    19 1   
    17    14    19 1   
    18    15    19 1   
@<TRIPOS>SUBSTRUCTURE
     1 VAH         1 TEMP              0 ****  ****    0 ROOT
