@<TRIPOS>MOLECULE
VAI
   21    20     1     0     0
SMALL
No Charge or Current Charge


@<TRIPOS>ATOM
      1 C           -7.4990    32.6380    -0.7220 c3         1 VAI       0.337900
      2 N           -7.4150    34.8950    -1.8970 n8         1 VAI      -0.895800
      3 O           -7.0670    31.9320     0.4320 oh         1 VAI      -0.615300
      4 CA          -7.1640    34.1780    -0.6140 c3         1 VAI       0.180500
      5 CB          -7.8670    34.9000     0.5830 c3         1 VAI      -0.053700
      6 CG1         -7.3320    36.3380     0.8000 c3         1 VAI      -0.086100
      7 CG2         -9.4160    34.8950     0.4920 c3         1 VAI      -0.086100
      8 H1          -8.5800    32.4990    -0.8520 h2         1 VAI       0.029700
      9 OXT         -6.8190    32.0500    -1.8250 oh         1 VAI      -0.615300
     10 H           -6.9000    35.7790    -1.8870 hn         1 VAI       0.347800
     11 H2          -6.9770    34.3510    -2.6470 hn         1 VAI       0.347800
     12 HO          -7.6000    31.1130     0.4730 ho         1 VAI       0.404500
     13 HA          -6.0800    34.2390    -0.4370 h1         1 VAI       0.039700
     14 HB          -7.6040    34.3410     1.4900 hc         1 VAI       0.060700
     15 HG11        -7.7450    36.7670     1.7210 hc         1 VAI       0.033200
     16 HG12        -6.2390    36.3350     0.8930 hc         1 VAI       0.033200
     17 HG13        -7.6060    36.9960    -0.0320 hc         1 VAI       0.033200
     18 HG21        -9.8530    35.3770     1.3750 hc         1 VAI       0.033200
     19 HG22        -9.7630    35.4370    -0.3950 hc         1 VAI       0.033200
     20 HG23        -9.8080    33.8720     0.4470 hc         1 VAI       0.033200
     21 HXT         -7.3870    31.3190    -2.1430 ho         1 VAI       0.404500
@<TRIPOS>BOND
     1     1     3 1   
     2     1     4 1   
     3     1     8 1   
     4     1     9 1   
     5     2     4 1   
     6     2    10 1   
     7     2    11 1   
     8     3    12 1   
     9     4     5 1   
    10     4    13 1   
    11     5     6 1   
    12     5     7 1   
    13     5    14 1   
    14     6    15 1   
    15     6    16 1   
    16     6    17 1   
    17     7    18 1   
    18     7    19 1   
    19     7    20 1   
    20     9    21 1   
@<TRIPOS>SUBSTRUCTURE
     1 VAI         1 TEMP              0 ****  ****    0 ROOT
