@<TRIPOS>MOLECULE
VAI
   21    20     1     0     0
SMALL
bcc


@<TRIPOS>ATOM
      1 C           -7.5350    32.6950    -0.7410 c3         1 VAI       0.337900
      2 N           -7.4390    34.8390    -1.8470 n8         1 VAI      -0.895800
      3 O           -7.2940    32.0420     0.4700 oh         1 VAI      -0.615300
      4 CA          -7.1310    34.1600    -0.5940 c3         1 VAI       0.180500
      5 CB          -7.8260    34.8560     0.5880 c3         1 VAI      -0.053700
      6 CG1         -7.3280    36.2920     0.7430 c3         1 VAI      -0.086100
      7 CG2         -9.3500    34.8330     0.5090 c3         1 VAI      -0.086100
      8 H1          -8.6010    32.6350    -1.0030 h2         1 VAI       0.029700
      9 OXT         -6.7690    32.1540    -1.7850 oh         1 VAI      -0.615300
     10 H           -7.0780    35.7830    -1.8180 hn         1 VAI       0.347800
     11 H2          -6.9460    34.3830    -2.6030 hn         1 VAI       0.347800
     12 HO          -7.7910    31.2180     0.4900 ho         1 VAI       0.404500
     13 HA          -6.0500    34.1690    -0.3700 h1         1 VAI       0.039700
     14 HB          -7.5240    34.3150     1.4880 hc         1 VAI       0.060700
     15 HG11        -7.6910    36.7240     1.6770 hc         1 VAI       0.033200
     16 HG12        -6.2370    36.3430     0.7590 hc         1 VAI       0.033200
     17 HG13        -7.6820    36.9380    -0.0630 hc         1 VAI       0.033200
     18 HG21        -9.7810    35.3640     1.3590 hc         1 VAI       0.033200
     19 HG22        -9.7070    35.3190    -0.4000 hc         1 VAI       0.033200
     20 HG23        -9.7520    33.8190     0.5270 hc         1 VAI       0.033200
     21 HXT         -7.2080    31.3710    -2.1310 ho         1 VAI       0.404500
@<TRIPOS>BOND
     1     1     3 1   
     2     1     4 1   
     3     1     8 1   
     4     1     9 1   
     5     2     4 1   
     6     2    10 1   
     7     2    11 1   
     8     3    12 1   
     9     4     5 1   
    10     4    13 1   
    11     5     6 1   
    12     5     7 1   
    13     5    14 1   
    14     6    15 1   
    15     6    16 1   
    16     6    17 1   
    17     7    18 1   
    18     7    19 1   
    19     7    20 1   
    20     9    21 1   
@<TRIPOS>SUBSTRUCTURE
     1 VAI         1 TEMP              0 ****  ****    0 ROOT
