@<TRIPOS>MOLECULE
VAJ
   26    27     1     0     0
SMALL
No Charge or Current Charge


@<TRIPOS>ATOM
      1 C1          39.2400   -41.6230    11.1430 ca         1 VAJ      -0.145600
      2 C2          38.7890   -41.7050    12.4810 ca         1 VAJ      -0.098000
      3 C3          38.2530   -40.5800    13.1310 ca         1 VAJ      -0.134500
      4 C4          38.1460   -39.3300    12.4740 cp         1 VAJ      -0.046000
      5 C7          37.5750   -38.1310    13.1690 cp         1 VAJ      -0.050000
      6 C9          37.5360   -35.7090    13.5580 ca         1 VAJ      -0.160000
      7 C10         36.4930   -35.8600    14.4850 ca         1 VAJ      -0.098000
      8 C           39.8210   -42.8400    10.4370 c          1 VAJ       0.716600
      9 O           40.2010   -42.7220     9.2800 o          1 VAJ      -0.736000
     10 C11         35.9680   -37.1400    14.7750 ca         1 VAJ      -0.146600
     11 C12         36.5200   -38.2610    14.1090 ca         1 VAJ      -0.076000
     12 C5          38.6010   -39.2560    11.1350 ca         1 VAJ      -0.134500
     13 C6          39.1370   -40.3780    10.4800 ca         1 VAJ      -0.098000
     14 C8          38.0700   -36.8300    12.9070 ca         1 VAJ      -0.130000
     15 O1          39.8900   -43.8970    11.0480 o          1 VAJ      -0.736000
     16 O2          34.3800   -36.3160    16.3240 o          1 VAJ      -0.732000
     17 O3          34.4140   -38.4370    16.0010 o          1 VAJ      -0.732000
     18 H1          38.8550   -42.6440    13.0250 ha         1 VAJ       0.115000
     19 H2          37.9300   -40.6790    14.1640 ha         1 VAJ       0.092500
     20 H3          37.9330   -34.7190    13.3460 ha         1 VAJ       0.072000
     21 H4          36.0940   -34.9760    14.9790 ha         1 VAJ       0.113000
     22 H5          36.1170   -39.2500    14.3110 ha         1 VAJ       0.132000
     23 H6          38.5260   -38.3190    10.5880 ha         1 VAJ       0.092500
     24 H7          39.4700   -40.2760     9.4500 ha         1 VAJ       0.115000
     25 H8          38.8860   -36.6900    12.2030 ha         1 VAJ       0.087000
     26 C13         34.8340   -37.3110    15.7760 c          1 VAJ       0.715600
@<TRIPOS>BOND
     1     1     2 ar  
     2     1     8 1   
     3     1    13 ar  
     4     2     3 ar  
     5     2    18 1   
     6     3     4 ar  
     7     3    19 1   
     8     4     5 1   
     9     4    12 ar  
    10     5    11 ar  
    11     5    14 ar  
    12     6     7 ar  
    13     6    14 ar  
    14     6    20 1   
    15     7    10 ar  
    16     7    21 1   
    17     8     9 1   
    18     8    15 1   
    19    10    11 ar  
    20    10    26 1   
    21    11    22 1   
    22    12    13 ar  
    23    12    23 1   
    24    13    24 1   
    25    14    25 1   
    26    16    26 1   
    27    17    26 1   
@<TRIPOS>SUBSTRUCTURE
     1 VAJ         1 TEMP              0 ****  ****    0 ROOT
