@<TRIPOS>MOLECULE
VAJ
   26    27     1     0     0
SMALL
abcg2


@<TRIPOS>ATOM
      1 C1          39.2100   -41.5840    11.1720 ca         1 VAJ      -0.145600
      2 C2          38.8240   -41.6440    12.5090 ca         1 VAJ      -0.098000
      3 C3          38.3090   -40.5330    13.1580 ca         1 VAJ      -0.134500
      4 C4          38.1670   -39.3130    12.4930 cp         1 VAJ      -0.046000
      5 C7          37.6050   -38.1310    13.1780 cp         1 VAJ      -0.050000
      6 C9          37.5700   -35.7520    13.5820 ca         1 VAJ      -0.160000
      7 C10         36.5140   -35.9070    14.4690 ca         1 VAJ      -0.098000
      8 C           39.7610   -42.8120    10.4530 c          1 VAJ       0.716600
      9 O           40.0240   -42.6750     9.2430 o          1 VAJ      -0.736000
     10 C11         35.9880   -37.1710    14.7250 ca         1 VAJ      -0.146600
     11 C12         36.5450   -38.2670    14.0750 ca         1 VAJ      -0.076000
     12 C5          38.5640   -39.2500    11.1560 ca         1 VAJ      -0.134500
     13 C6          39.0720   -40.3660    10.5100 ca         1 VAJ      -0.098000
     14 C8          38.1140   -36.8530    12.9380 ca         1 VAJ      -0.130000
     15 O1          39.8980   -43.8430    11.1400 o          1 VAJ      -0.736000
     16 O2          34.3780   -36.3220    16.2320 o          1 VAJ      -0.732000
     17 O3          34.4070   -38.5210    15.8510 o          1 VAJ      -0.732000
     18 H1          38.9310   -42.5740    13.0520 ha         1 VAJ       0.115000
     19 H2          38.0290   -40.6110    14.2020 ha         1 VAJ       0.092500
     20 H3          37.9780   -34.7670    13.3930 ha         1 VAJ       0.072000
     21 H4          36.0930   -35.0420    14.9650 ha         1 VAJ       0.113000
     22 H5          36.1240   -39.2470    14.2580 ha         1 VAJ       0.132000
     23 H6          38.4510   -38.3250    10.6040 ha         1 VAJ       0.092500
     24 H7          39.3570   -40.2920     9.4690 ha         1 VAJ       0.115000
     25 H8          38.9480   -36.7210    12.2600 ha         1 VAJ       0.087000
     26 C13         34.8170   -37.3550    15.6910 c          1 VAJ       0.715600
@<TRIPOS>BOND
     1     1     2 ar  
     2     1     8 1   
     3     1    13 ar  
     4     2     3 ar  
     5     2    18 1   
     6     3     4 ar  
     7     3    19 1   
     8     4     5 1   
     9     4    12 ar  
    10     5    11 ar  
    11     5    14 ar  
    12     6     7 ar  
    13     6    14 ar  
    14     6    20 1   
    15     7    10 ar  
    16     7    21 1   
    17     8     9 1   
    18     8    15 1   
    19    10    11 ar  
    20    10    26 1   
    21    11    22 1   
    22    12    13 ar  
    23    12    23 1   
    24    13    24 1   
    25    14    25 1   
    26    16    26 1   
    27    17    26 1   
@<TRIPOS>SUBSTRUCTURE
     1 VAJ         1 TEMP              0 ****  ****    0 ROOT
