@<TRIPOS>MOLECULE
VAK
   50    53     1     0     0
SMALL
No Charge or Current Charge


@<TRIPOS>ATOM
      1 C1          -4.7280     2.0880    -0.6090 ca         1 VAK      -0.112000
      2 C2          -6.0640     1.6870    -0.4750 ca         1 VAK      -0.046000
      3 C3          -6.3600     0.3700    -0.1030 ca         1 VAK      -0.153000
      4 C4          -5.3270    -0.5450     0.1370 ca         1 VAK       0.223100
      5 C5          -2.8560    -1.1400     0.2630 c          1 VAK       0.636300
      6 C6          -0.3490    -1.5860     0.3440 ca         1 VAK       0.227100
      7 C7           2.1300    -2.1750     0.4450 c6         1 VAK       0.240600
      8 C8           3.5240    -1.5210     0.6100 c6         1 VAK      -0.115400
      9 C9           3.7960    -0.4360    -0.4650 c6         1 VAK       0.209000
     10 C10          2.7120     0.6780    -0.3090 c6         1 VAK      -0.083400
     11 C11          0.2090     1.0500    -0.4030 ca         1 VAK      -0.104000
     12 C12         -2.2400     1.6480    -0.5260 c          1 VAK       0.586300
     13 C13          5.2630     0.1200    -0.3750 c3         1 VAK      -0.098400
     14 C14          3.0260     1.6850     0.8150 c          1 VAK       0.593100
     15 C15          4.1690     3.7320     1.3880 c3         1 VAK       0.149900
     16 C16         -3.9710    -0.1570     0.0060 ca         1 VAK      -0.259600
     17 O16          3.8260     2.7260     0.4160 os         1 VAK      -0.437100
     18 C17         -1.4220    -0.6900     0.1140 ca         1 VAK      -0.256600
     19 O17          2.5580     1.5860     1.9420 o          1 VAK      -0.479000
     20 C18         -1.1360     0.6460    -0.2650 ca         1 VAK      -0.077600
     21 O18         -1.9840     2.8040    -0.8520 o          1 VAK      -0.503100
     22 C19          1.2700     0.1620    -0.1690 ca         1 VAK       0.022700
     23 O19         -5.6640    -1.8140     0.4970 oh         1 VAK      -0.535100
     24 C20          0.9930    -1.1690     0.2120 ca         1 VAK      -0.124300
     25 O20         -3.1150    -2.2970     0.5920 o          1 VAK      -0.628100
     26 C21         -3.6700     1.1790    -0.3720 ca         1 VAK      -0.079600
     27 O21         -0.6040    -2.8830     0.6850 oh         1 VAK      -0.560100
     28 C22          6.4130    -0.8810    -0.6510 c3         1 VAK      -0.091100
     29 O22          2.1700    -3.0770    -0.6640 oh         1 VAK      -0.668000
     30 O23          3.6450    -1.0400    -1.7490 oh         1 VAK      -0.658000
     31 H1          -4.5170     3.1150    -0.8990 ha         1 VAK       0.142000
     32 H2          -6.8690     2.3960    -0.6610 ha         1 VAK       0.124000
     33 H3          -7.3950     0.0560     0.0020 ha         1 VAK       0.138000
     34 H7           1.9200    -2.7360     1.3690 h1         1 VAK       0.054700
     35 H8           3.5930    -1.0730     1.6110 hc         1 VAK       0.069700
     36 H8A          4.2890    -2.3070     0.5820 hc         1 VAK       0.069700
     37 H10          2.8070     1.2660    -1.2320 hc         1 VAK       0.105700
     38 H11          0.4370     2.0740    -0.6930 ha         1 VAK       0.143000
     39 H13          5.3750     0.9510    -1.0820 hc         1 VAK       0.051700
     40 H13A         5.4420     0.5430     0.6200 hc         1 VAK       0.051700
     41 H15          4.8120     4.4970     0.9350 h1         1 VAK       0.051033
     42 H15A         3.2680     4.2290     1.7720 h1         1 VAK       0.051033
     43 H15B         4.7110     3.2900     2.2340 h1         1 VAK       0.051033
     44 HO19        -4.8040    -2.2960     0.6190 ho         1 VAK       0.517000
     45 HO21        -1.5940    -2.9600     0.7370 ho         1 VAK       0.524000
     46 H22          6.4360    -1.6810     0.0970 hc         1 VAK       0.036700
     47 H22A         6.3160    -1.3340    -1.6450 hc         1 VAK       0.036700
     48 H22B         7.3780    -0.3630    -0.6120 hc         1 VAK       0.036700
     49 HO22         1.3120    -3.5600    -0.6330 ho         1 VAK       0.461000
     50 HO23         3.1100    -1.8570    -1.5690 ho         1 VAK       0.465000
@<TRIPOS>BOND
     1     1     2 ar  
     2     1    26 ar  
     3     1    31 1   
     4     2     3 ar  
     5     2    32 1   
     6     3     4 ar  
     7     3    33 1   
     8     4    16 ar  
     9     4    23 1   
    10     5    16 1   
    11     5    18 1   
    12     5    25 2   
    13     6    18 ar  
    14     6    24 ar  
    15     6    27 1   
    16     7     8 1   
    17     7    24 1   
    18     7    29 1   
    19     7    34 1   
    20     8     9 1   
    21     8    35 1   
    22     8    36 1   
    23     9    10 1   
    24     9    13 1   
    25     9    30 1   
    26    10    14 1   
    27    10    22 1   
    28    10    37 1   
    29    11    20 ar  
    30    11    22 ar  
    31    11    38 1   
    32    12    20 1   
    33    12    21 2   
    34    12    26 1   
    35    13    28 1   
    36    13    39 1   
    37    13    40 1   
    38    14    17 1   
    39    14    19 2   
    40    15    17 1   
    41    15    41 1   
    42    15    42 1   
    43    15    43 1   
    44    16    26 ar  
    45    18    20 ar  
    46    22    24 ar  
    47    23    44 1   
    48    27    45 1   
    49    28    46 1   
    50    28    47 1   
    51    28    48 1   
    52    29    49 1   
    53    30    50 1   
@<TRIPOS>SUBSTRUCTURE
     1 VAK         1 TEMP              0 ****  ****    0 ROOT
