@<TRIPOS>MOLECULE
VAK
   50    53     1     0     0
SMALL
abcg2


@<TRIPOS>ATOM
      1 C1          -4.5980     2.0530    -0.7940 ca         1 VAK      -0.112000
      2 C2          -5.9200     1.6350    -0.6450 ca         1 VAK      -0.046000
      3 C3          -6.2150     0.3670    -0.1980 ca         1 VAK      -0.153000
      4 C4          -5.1870    -0.5290     0.1160 ca         1 VAK       0.223100
      5 C5          -2.7650    -1.0390     0.2970 c          1 VAK       0.636300
      6 C6          -0.3290    -1.4750     0.4580 ca         1 VAK       0.227100
      7 C7           2.1010    -2.0720     0.6270 c6         1 VAK       0.240600
      8 C8           3.4940    -1.4620     0.6000 c6         1 VAK      -0.115400
      9 C9           3.6900    -0.4160    -0.4930 c6         1 VAK       0.209000
     10 C10          2.6790     0.7320    -0.2820 c6         1 VAK      -0.083400
     11 C11          0.2250     1.0860    -0.4500 ca         1 VAK      -0.104000
     12 C12         -2.1700     1.6420    -0.6520 c          1 VAK       0.586300
     13 C13          5.1310     0.1130    -0.5130 c3         1 VAK      -0.098400
     14 C14          3.0080     1.5820     0.9320 c          1 VAK       0.593100
     15 C15          4.0420     3.5660     1.6610 c3         1 VAK       0.149900
     16 C16         -3.8470    -0.1190    -0.0280 ca         1 VAK      -0.259600
     17 O16          3.6440     2.6920     0.6020 os         1 VAK      -0.437100
     18 C17         -1.3840    -0.6020     0.1500 ca         1 VAK      -0.256600
     19 O17          2.7160     1.2880     2.0640 o          1 VAK      -0.479000
     20 C18         -1.0850     0.6910    -0.3110 ca         1 VAK      -0.077600
     21 O18         -1.9190     2.7600    -1.0520 o          1 VAK      -0.503100
     22 C19          1.2720     0.2140    -0.1350 ca         1 VAK       0.022700
     23 O19         -5.5350    -1.7380     0.5370 oh         1 VAK      -0.535100
     24 C20          1.0120    -1.0650     0.3190 ca         1 VAK      -0.124300
     25 O20         -3.0200    -2.1890     0.6960 o          1 VAK      -0.628100
     26 C21         -3.5710     1.1830    -0.4880 ca         1 VAK      -0.079600
     27 O21         -0.5350    -2.7120     0.8950 oh         1 VAK      -0.560100
     28 C22          6.1640    -0.9110    -0.9640 c3         1 VAK      -0.091100
     29 O22          2.0650    -3.1430    -0.3000 oh         1 VAK      -0.668000
     30 O23          3.3350    -0.9300    -1.7630 oh         1 VAK      -0.658000
     31 H1          -4.3800     3.0510    -1.1460 ha         1 VAK       0.142000
     32 H2          -6.7260     2.3160    -0.8830 ha         1 VAK       0.124000
     33 H3          -7.2430     0.0460    -0.0850 ha         1 VAK       0.138000
     34 H7           1.9340    -2.4510     1.6430 h1         1 VAK       0.054700
     35 H8           3.7130    -1.0160     1.5700 hc         1 VAK       0.069700
     36 H8A          4.2140    -2.2770     0.4840 hc         1 VAK       0.069700
     37 H10          2.7260     1.3710    -1.1680 hc         1 VAK       0.105700
     38 H11          0.4540     2.0810    -0.8110 ha         1 VAK       0.143000
     39 H13          5.1740     0.9800    -1.1780 hc         1 VAK       0.051700
     40 H13A         5.4020     0.4710     0.4840 hc         1 VAK       0.051700
     41 H15          4.5820     4.3810     1.1870 h1         1 VAK       0.051033
     42 H15A         3.1770     3.9630     2.1910 h1         1 VAK       0.051033
     43 H15B         4.6980     3.0610     2.3690 h1         1 VAK       0.051033
     44 HO19        -4.7180    -2.2500     0.7150 ho         1 VAK       0.517000
     45 HO21        -1.5050    -2.8720     0.9380 ho         1 VAK       0.524000
     46 H22          6.2190    -1.7690    -0.2940 hc         1 VAK       0.036700
     47 H22A         5.9570    -1.2800    -1.9690 hc         1 VAK       0.036700
     48 H22B         7.1550    -0.4570    -0.9840 hc         1 VAK       0.036700
     49 HO22         1.3060    -3.6980    -0.0970 ho         1 VAK       0.461000
     50 HO23         3.6030    -1.8530    -1.8210 ho         1 VAK       0.465000
@<TRIPOS>BOND
     1     1     2 ar  
     2     1    26 ar  
     3     1    31 1   
     4     2     3 ar  
     5     2    32 1   
     6     3     4 ar  
     7     3    33 1   
     8     4    16 ar  
     9     4    23 1   
    10     5    16 1   
    11     5    18 1   
    12     5    25 2   
    13     6    18 ar  
    14     6    24 ar  
    15     6    27 1   
    16     7     8 1   
    17     7    24 1   
    18     7    29 1   
    19     7    34 1   
    20     8     9 1   
    21     8    35 1   
    22     8    36 1   
    23     9    10 1   
    24     9    13 1   
    25     9    30 1   
    26    10    14 1   
    27    10    22 1   
    28    10    37 1   
    29    11    20 ar  
    30    11    22 ar  
    31    11    38 1   
    32    12    20 1   
    33    12    21 2   
    34    12    26 1   
    35    13    28 1   
    36    13    39 1   
    37    13    40 1   
    38    14    17 1   
    39    14    19 2   
    40    15    17 1   
    41    15    41 1   
    42    15    42 1   
    43    15    43 1   
    44    16    26 ar  
    45    18    20 ar  
    46    22    24 ar  
    47    23    44 1   
    48    27    45 1   
    49    28    46 1   
    50    28    47 1   
    51    28    48 1   
    52    29    49 1   
    53    30    50 1   
@<TRIPOS>SUBSTRUCTURE
     1 VAK         1 TEMP              0 ****  ****    0 ROOT
