@<TRIPOS>MOLECULE
VAM
   48    49     1     0     0
SMALL
bcc


@<TRIPOS>ATOM
      1 O10          2.7230     3.0460     1.1420 oh         1 VAM      -0.585800
      2 C12          1.7520     2.0410     0.9840 c3         1 VAM       0.143400
      3 C11          2.2910     0.9970     0.0280 c6         1 VAM       0.135100
      4 O11          3.4580     0.4540     0.6050 os         1 VAM      -0.418600
      5 C7           4.1410    -0.4240    -0.2510 c6         1 VAM       0.314900
      6 O7           5.2980    -0.8350     0.3710 os         1 VAM      -0.401600
      7 CM           6.3280     0.1360     0.3960 c3         1 VAM       0.125700
      8 C10          1.2880    -0.1350    -0.2430 c6         1 VAM       0.124100
      9 O9           0.1570     0.3760    -0.9250 os         1 VAM      -0.396600
     10 C9           1.9410    -1.1920    -1.1250 c6         1 VAM       0.151100
     11 C8           3.2680    -1.6430    -0.5220 c6         1 VAM       0.082100
     12 O8           3.8650    -2.5210    -1.4450 oh         1 VAM      -0.601800
     13 O1           1.0520    -2.2640    -1.2790 oh         1 VAM      -0.567800
     14 O6          -4.2200     2.2700    -0.8860 oh         1 VAM      -0.601800
     15 C2          -3.2550    -2.2790     0.6740 c3         1 VAM       0.146400
     16 O2          -2.2690    -3.0290     1.3350 oh         1 VAM      -0.582800
     17 C3          -2.7980    -0.8360     0.5990 c6         1 VAM       0.167100
     18 O3          -1.6170    -0.8040    -0.1720 os         1 VAM      -0.398600
     19 C4          -3.8480     0.0800    -0.0440 c6         1 VAM       0.008400
     20 C5          -3.2830     1.4880    -0.1930 c6         1 VAM       0.152100
     21 C6          -1.9450     1.4430    -0.9260 c6         1 VAM       0.085100
     22 C70         -1.0210     0.4620    -0.2110 c6         1 VAM       0.322900
     23 O5          -1.4250     2.7490    -0.9260 oh         1 VAM      -0.606800
     24 S10         -5.3460     0.0900     1.0030 sh         1 VAM      -0.405900
     25 H10          2.3390     3.7450     1.6790 ho         1 VAM       0.406000
     26 H121         1.5000     1.5580     1.9380 h1         1 VAM       0.032700
     27 H122         0.8220     2.4500     0.5740 h1         1 VAM       0.032700
     28 H11          2.5320     1.4820    -0.9330 h1         1 VAM       0.055700
     29 HA           0.9940    -0.5940     0.7110 h1         1 VAM       0.080700
     30 H7           4.3670     0.0890    -1.2060 h2         1 VAM       0.034700
     31 H8           3.0690    -2.1440     0.4380 h1         1 VAM       0.068700
     32 HMC1         6.5860     0.4710    -0.6140 h1         1 VAM       0.039033
     33 HMC2         6.0580     1.0100     0.9930 h1         1 VAM       0.039033
     34 HMC3         7.2040    -0.3310     0.8410 h1         1 VAM       0.039033
     35 H9           2.1620    -0.7180    -2.0980 h1         1 VAM       0.046700
     36 H70         -0.8410     0.8170     0.8220 h2         1 VAM       0.028700
     37 H1           1.4820    -2.9230    -1.8350 ho         1 VAM       0.418000
     38 HB           4.5880    -2.9810    -1.0090 ho         1 VAM       0.425000
     39 H6          -3.9280     3.1870    -0.8630 ho         1 VAM       0.430000
     40 H2C1        -3.4440    -2.6440    -0.3440 h1         1 VAM       0.038200
     41 H2C2        -4.2120    -2.3160     1.2080 h1         1 VAM       0.038200
     42 H2          -2.5940    -3.9300     1.4220 ho         1 VAM       0.407000
     43 H3          -2.5960    -0.4710     1.6200 h1         1 VAM       0.058700
     44 H4          -4.1070    -0.3150    -1.0320 h1         1 VAM       0.095700
     45 HC          -5.9830     1.0740     0.3620 hs         1 VAM       0.241800
     46 HD          -2.1140     1.0740    -1.9480 h1         1 VAM       0.073700
     47 HE          -0.6930     2.7910    -1.5500 ho         1 VAM       0.426000
     48 H5          -3.1050     1.8890     0.8180 h1         1 VAM       0.054700
@<TRIPOS>BOND
     1     1     2 1   
     2     1    25 1   
     3     2     3 1   
     4     2    26 1   
     5     2    27 1   
     6     3     4 1   
     7     3     8 1   
     8     3    28 1   
     9     4     5 1   
    10     5     6 1   
    11     5    11 1   
    12     5    30 1   
    13     6     7 1   
    14     7    32 1   
    15     7    33 1   
    16     7    34 1   
    17     8     9 1   
    18     8    10 1   
    19     8    29 1   
    20     9    22 1   
    21    10    11 1   
    22    10    13 1   
    23    10    35 1   
    24    11    12 1   
    25    11    31 1   
    26    12    38 1   
    27    13    37 1   
    28    14    20 1   
    29    14    39 1   
    30    15    16 1   
    31    15    17 1   
    32    15    40 1   
    33    15    41 1   
    34    16    42 1   
    35    17    18 1   
    36    17    19 1   
    37    17    43 1   
    38    18    22 1   
    39    19    20 1   
    40    19    24 1   
    41    19    44 1   
    42    20    21 1   
    43    20    48 1   
    44    21    22 1   
    45    21    23 1   
    46    21    46 1   
    47    22    36 1   
    48    23    47 1   
    49    24    45 1   
@<TRIPOS>SUBSTRUCTURE
     1 VAM         1 TEMP              0 ****  ****    0 ROOT
