@<TRIPOS>MOLECULE
VAM
   48    49     1     0     0
SMALL
No Charge or Current Charge


@<TRIPOS>ATOM
      1 O10          2.5450     2.7510     1.7330 oh         1 VAM      -0.708000
      2 C12          1.6030     1.8480     1.1200 c3         1 VAM       0.166600
      3 C11          2.2450     0.9230     0.0330 c6         1 VAM       0.158300
      4 O11          3.4040     0.2740     0.6260 os         1 VAM      -0.465000
      5 C7           4.1930    -0.4830    -0.3100 c6         1 VAM       0.361300
      6 O7           5.3600    -0.9960     0.3540 os         1 VAM      -0.448000
      7 CM           6.3080    -0.0180     0.8160 c3         1 VAM       0.148900
      8 C10          1.2750    -0.1610    -0.5600 c6         1 VAM       0.147300
      9 O9           0.1130     0.4130    -1.2220 os         1 VAM      -0.443000
     10 C9           2.0750    -1.0620    -1.5590 c6         1 VAM       0.174300
     11 C8           3.3310    -1.6580    -0.8680 c6         1 VAM       0.105300
     12 O8           4.0670    -2.5050    -1.7870 oh         1 VAM      -0.724000
     13 O1           1.2850    -2.1370    -2.0980 oh         1 VAM      -0.690000
     14 O6          -4.4300     2.2410    -1.0390 oh         1 VAM      -0.664000
     15 C2          -3.1430    -2.1120     1.2050 c3         1 VAM       0.169600
     16 O2          -2.0580    -2.8700     1.7790 oh         1 VAM      -0.705000
     17 C3          -2.7430    -0.6460     0.8290 c6         1 VAM       0.190300
     18 O3          -1.6070    -0.7020    -0.0730 os         1 VAM      -0.445000
     19 C4          -3.9100     0.1470     0.1630 c6         1 VAM       0.056300
     20 C5          -3.4070     1.5420    -0.3120 c6         1 VAM       0.175300
     21 C6          -2.1440     1.3920    -1.2040 c6         1 VAM       0.108300
     22 C70         -1.0670     0.5870    -0.4110 c6         1 VAM       0.369300
     23 O5          -1.6650     2.6910    -1.6390 oh         1 VAM      -0.729000
     24 S10         -5.3440     0.3770     1.3610 sh         1 VAM      -0.453800
     25 H10          2.0670     3.2260     2.4520 ho         1 VAM       0.505000
     26 H121         1.1390     1.2090     1.8840 h1         1 VAM       0.032700
     27 H122         0.8040     2.4300     0.6430 h1         1 VAM       0.032700
     28 H11          2.5930     1.5700    -0.7860 h1         1 VAM       0.055700
     29 HA           0.9340    -0.8060     0.2630 h1         1 VAM       0.080700
     30 H7           4.5070     0.1680    -1.1400 h2         1 VAM       0.034700
     31 H8           2.9970    -2.2530    -0.0040 h1         1 VAM       0.068700
     32 HMC1         6.6750     0.5940    -0.0180 h1         1 VAM       0.039033
     33 HMC2         5.8540     0.6480     1.5620 h1         1 VAM       0.039033
     34 HMC3         7.1700    -0.5120     1.2820 h1         1 VAM       0.039033
     35 H9           2.4200    -0.4190    -2.3830 h1         1 VAM       0.046700
     36 H70         -0.8170     1.1280     0.5110 h2         1 VAM       0.028700
     37 H1           1.9580    -2.7910    -2.4080 ho         1 VAM       0.517000
     38 HB           4.9380    -2.6870    -1.3570 ho         1 VAM       0.524000
     39 H6          -3.9420     2.9340    -1.5430 ho         1 VAM       0.469000
     40 H2C1        -3.5090    -2.6080     0.2960 h1         1 VAM       0.038200
     41 H2C2        -3.9810    -2.0730     1.9130 h1         1 VAM       0.038200
     42 H2          -2.3860    -3.7910     1.9100 ho         1 VAM       0.506000
     43 H3          -2.4350    -0.1310     1.7520 h1         1 VAM       0.058700
     44 H4          -4.2620    -0.4160    -0.7140 h1         1 VAM       0.095700
     45 HC          -6.0240     1.2400     0.5610 hs         1 VAM       0.241800
     46 HD          -2.4180     0.7870    -2.0820 h1         1 VAM       0.073700
     47 HE          -0.8200     2.5280    -2.1230 ho         1 VAM       0.525000
     48 H5          -3.1250     2.1250     0.5780 h1         1 VAM       0.054700
@<TRIPOS>BOND
     1     1     2 1   
     2     1    25 1   
     3     2     3 1   
     4     2    26 1   
     5     2    27 1   
     6     3     4 1   
     7     3     8 1   
     8     3    28 1   
     9     4     5 1   
    10     5     6 1   
    11     5    11 1   
    12     5    30 1   
    13     6     7 1   
    14     7    32 1   
    15     7    33 1   
    16     7    34 1   
    17     8     9 1   
    18     8    10 1   
    19     8    29 1   
    20     9    22 1   
    21    10    11 1   
    22    10    13 1   
    23    10    35 1   
    24    11    12 1   
    25    11    31 1   
    26    12    38 1   
    27    13    37 1   
    28    14    20 1   
    29    14    39 1   
    30    15    16 1   
    31    15    17 1   
    32    15    40 1   
    33    15    41 1   
    34    16    42 1   
    35    17    18 1   
    36    17    19 1   
    37    17    43 1   
    38    18    22 1   
    39    19    20 1   
    40    19    24 1   
    41    19    44 1   
    42    20    21 1   
    43    20    48 1   
    44    21    22 1   
    45    21    23 1   
    46    21    46 1   
    47    22    36 1   
    48    23    47 1   
    49    24    45 1   
@<TRIPOS>SUBSTRUCTURE
     1 VAM         1 TEMP              0 ****  ****    0 ROOT
