@<TRIPOS>MOLECULE
VAN
  177   186     1     0     0
SMALL
abcg2


@<TRIPOS>ATOM
      1 C1           9.8080     9.3390    -0.3820 c3         1 VAN       0.075900
      2 N2           9.0240     8.0940    -0.5820 ny         1 VAN      -0.809000
      3 C3           7.5690     8.3090    -0.8030 c3         1 VAN       0.007300
      4 C6           6.7690     7.0260    -0.5680 c3         1 VAN      -0.111400
      5 C7           6.8140     6.4580     0.8540 c3         1 VAN      -0.057700
      6 C8           6.2650     7.4400     1.8840 c3         1 VAN      -0.100600
      7 C9           6.0360     5.1460     0.8790 c3         1 VAN      -0.100600
      8 C4           7.4070     8.7700    -2.2510 c          1 VAN       0.594100
      9 O5           8.2230     8.4490    -3.0950 o          1 VAN      -0.578100
     10 N10          6.2900     9.4760    -2.4840 ns         1 VAN      -0.470900
     11 C11          5.9520    10.0360    -3.7670 c3         1 VAN       0.018700
     12 C14          6.1300    11.5730    -3.7790 c3         1 VAN       0.220600
     13 O15          7.4760    11.7950    -3.4590 oh         1 VAN      -0.669000
     14 C16          5.1780    12.2250    -2.8020 ca         1 VAN      -0.147300
     15 C17          3.9490    12.7010    -3.2430 ca         1 VAN      -0.067000
     16 C19          2.9910    13.1060    -2.3270 ca         1 VAN       0.108000
     17 CL2          1.4350    13.6200    -2.8640 cl         1 VAN      -0.140000
     18 C21          3.2460    13.0270    -0.9660 ca         1 VAN       0.114100
     19 O22          2.2350    13.2240    -0.0650 os         1 VAN      -0.201200
     20 C20          4.5080    12.6590    -0.5270 ca         1 VAN      -0.126000
     21 C18          5.4740    12.2740    -1.4400 ca         1 VAN      -0.114000
     22 C12          4.5600     9.6180    -4.2450 c          1 VAN       0.593100
     23 O13          4.0310    10.1900    -5.1810 o          1 VAN      -0.573100
     24 N24          4.0050     8.5840    -3.5850 ns         1 VAN      -0.500900
     25 C25          2.7630     7.9670    -3.9820 c3         1 VAN       0.042700
     26 C28          2.9790     6.6640    -4.7410 c3         1 VAN      -0.179400
     27 C29          3.5480     5.5750    -3.8530 c          1 VAN       0.614100
     28 O30          3.9570     5.8130    -2.7230 o          1 VAN      -0.644100
     29 N31          3.5800     4.3550    -4.3990 nt         1 VAN      -0.589000
     30 C26          1.8110     7.7580    -2.8030 c          1 VAN       0.604100
     31 O27          0.9080     6.9430    -2.8700 o          1 VAN      -0.569100
     32 N32          1.9820     8.5780    -1.7490 ns         1 VAN      -0.481900
     33 C33          1.1740     8.4510    -0.5640 c3         1 VAN       0.077000
     34 C36          1.2770     9.7090     0.2910 ca         1 VAN      -0.030300
     35 C38          1.6310    10.9130    -0.2920 ca         1 VAN      -0.177000
     36 C40          1.7850    12.0550     0.4860 ca         1 VAN       0.141100
     37 C41          1.5630    12.0210     1.8550 ca         1 VAN       0.065100
     38 O42          1.7760    13.1250     2.6170 os         1 VAN      -0.324100
     39 C39          1.1990    10.8030     2.4320 ca         1 VAN       0.129100
     40 C37          1.0390     9.6630     1.6610 ca         1 VAN      -0.168000
     41 C34          1.6440     7.2530     0.2650 c          1 VAN       0.592100
     42 O35          2.8320     7.0260     0.4140 o          1 VAN      -0.622100
     43 N43          0.6730     6.5450     0.8590 ns         1 VAN      -0.473900
     44 C44          0.9760     5.6440     1.9400 c3         1 VAN       0.090000
     45 C47          1.2780     4.2150     1.5380 ca         1 VAN      -0.163300
     46 C48          2.4730     3.6320     1.9330 ca         1 VAN      -0.053000
     47 C50          2.7340     2.2780     1.7680 cp         1 VAN      -0.034000
     48 C52          1.7850     1.4970     1.1080 ca         1 VAN       0.190100
     49 O53          2.0560     0.1900     0.9470 oh         1 VAN      -0.502100
     50 C51          0.6000     2.0790     0.6550 ca         1 VAN      -0.208000
     51 C49          0.3420     3.4200     0.8850 ca         1 VAN      -0.032000
     52 C45         -0.2210     5.6230     2.8970 c          1 VAN       0.595100
     53 O46         -1.3280     5.9550     2.5050 o          1 VAN      -0.620100
     54 N54         -0.0080     5.1680     4.1430 ns         1 VAN      -0.471900
     55 C55          1.2450     4.8540     4.7730 c3         1 VAN       0.033700
     56 C58          1.4140     5.6570     6.0780 c3         1 VAN       0.208600
     57 O59          0.4160     5.2490     6.9650 oh         1 VAN      -0.613000
     58 C60          1.3430     7.1170     5.6820 ca         1 VAN      -0.113300
     59 C61          0.1440     7.8190     5.6780 ca         1 VAN      -0.068000
     60 C63          0.0570     9.0580     5.0590 ca         1 VAN      -0.104000
     61 C65          1.1670     9.6090     4.4440 ca         1 VAN       0.077100
     62 O66          1.0520    10.8020     3.7880 os         1 VAN      -0.248200
     63 C64          2.3890     8.9460     4.5220 ca         1 VAN       0.078000
     64 CL6          3.7980     9.6490     3.8180 cl         1 VAN      -0.212000
     65 C62          2.4750     7.7100     5.1350 ca         1 VAN      -0.100000
     66 C56          1.3790     3.3330     4.9250 c          1 VAN       0.592100
     67 O57          0.3960     2.6160     5.0110 o          1 VAN      -0.559100
     68 N68          2.6330     2.8720     4.8560 ns         1 VAN      -0.448900
     69 C69          2.9180     1.4750     4.5960 c3         1 VAN      -0.010000
     70 C72          4.1220     1.3790     3.6720 ca         1 VAN       0.035700
     71 C73          3.9900     1.7100     2.3180 cp         1 VAN      -0.112000
     72 C75          5.0990     1.5690     1.4800 ca         1 VAN       0.164100
     73 O79          4.9240     1.8740     0.1800 oh         1 VAN      -0.534100
     74 C76          6.3250     1.1430     1.9720 ca         1 VAN      -0.268000
     75 C77          6.4510     0.8520     3.3250 ca         1 VAN       0.166100
     76 O78          7.6620     0.4560     3.7620 oh         1 VAN      -0.549100
     77 C74          5.3530     0.9700     4.1710 ca         1 VAN      -0.198000
     78 C70          3.0680     0.6130     5.8790 c          1 VAN       0.725000
     79 O71          3.3440     1.2080     6.9330 o          1 VAN      -0.700500
     80 O80          2.9050    -0.6080     5.7030 o          1 VAN      -0.700500
     81 C10          0.6290    13.8400     2.9710 c6         1 VAN       0.388300
     82 C2           1.0250    14.9380     3.9540 c6         1 VAN       0.152300
     83 O2           1.4850    14.3490     5.1470 os         1 VAN      -0.483000
     84 C13         -0.2040    15.7960     4.2360 c6         1 VAN       0.152300
     85 O3           0.1860    16.8400     5.0870 oh         1 VAN      -0.728000
     86 C22         -0.7950    16.3100     2.9250 c6         1 VAN       0.107300
     87 O4          -1.9650    17.0270     3.2410 oh         1 VAN      -0.724000
     88 C5          -1.0940    15.1180     2.0100 c6         1 VAN       0.153300
     89 O9           0.1040    14.3910     1.8040 os         1 VAN      -0.450000
     90 C15         -1.6530    15.4990     0.6560 c3         1 VAN       0.167600
     91 O6          -0.7770    16.3950     0.0180 oh         1 VAN      -0.714000
     92 C1B          2.6700    14.8690     5.6840 c6         1 VAN       0.407300
     93 C2B          2.7750    14.4410     7.1440 c6         1 VAN      -0.120400
     94 C3B          3.1850    12.9760     7.3060 c6         1 VAN       0.142000
     95 N3           3.6000    12.7780     8.7380 nz         1 VAN      -0.981000
     96 C3M          2.0470    11.9990     7.0460 c3         1 VAN      -0.128100
     97 C4B          4.4180    12.6820     6.4360 c6         1 VAN       0.121300
     98 O4B          5.5040    13.3750     7.0050 oh         1 VAN      -0.742000
     99 C5B          4.1470    13.1220     4.9970 c6         1 VAN       0.157300
    100 O5B          3.7940    14.4960     4.9490 os         1 VAN      -0.444000
    101 C5M          5.3540    12.9400     4.1010 c3         1 VAN      -0.091100
    102 H11A        10.8530     9.0700    -0.2670 hx         1 VAN       0.100700
    103 H12          9.6880     9.9890    -1.2430 hx         1 VAN       0.100700
    104 H13          9.4470     9.8320     0.5150 hx         1 VAN       0.100700
    105 HN21         9.4000     7.5780    -1.3840 hn         1 VAN       0.519500
    106 HN22         9.1640     7.4890     0.2300 hn         1 VAN       0.519500
    107 H3           7.2570     9.0930    -0.1110 hx         1 VAN       0.104700
    108 H61A         5.7260     7.2480    -0.8100 hc         1 VAN       0.101200
    109 H62A         7.0990     6.2670    -1.2830 hc         1 VAN       0.101200
    110 H7           7.8490     6.2180     1.1230 hc         1 VAN       0.014700
    111 H81          6.2450     6.9850     2.8750 hc         1 VAN       0.053033
    112 H82          6.8670     8.3470     1.9610 hc         1 VAN       0.053033
    113 H83          5.2450     7.7350     1.6330 hc         1 VAN       0.053033
    114 H91          6.0640     4.6950     1.8710 hc         1 VAN       0.053033
    115 H92          4.9880     5.3080     0.6180 hc         1 VAN       0.053033
    116 H93          6.4480     4.4250     0.1720 hc         1 VAN       0.053033
    117 HN0          5.7180     9.7360    -1.6920 hn         1 VAN       0.331500
    118 H11          6.6540     9.6250    -4.4990 h1         1 VAN       0.125700
    119 H14          5.8960    11.9180    -4.7920 h1         1 VAN       0.088700
    120 HO5          7.6500    12.7410    -3.5110 ho         1 VAN       0.468000
    121 H17          3.7160    12.7180    -4.2990 ha         1 VAN       0.157000
    122 H20          4.7170    12.6350     0.5360 ha         1 VAN       0.130000
    123 H18          6.4500    11.9780    -1.0790 ha         1 VAN       0.108000
    124 HN4          4.5790     8.0600    -2.9400 hn         1 VAN       0.333500
    125 H25          2.2560     8.6650    -4.6540 h1         1 VAN       0.108700
    126 H281         2.0460     6.3310    -5.1960 hc         1 VAN       0.085700
    127 H282         3.6700     6.8480    -5.5680 hc         1 VAN       0.085700
    128 HN11         3.2330     4.1770    -5.3260 hn         1 VAN       0.324500
    129 HN12         3.9670     3.5770    -3.8900 hn         1 VAN       0.324500
    130 HN3          2.8490     9.0910    -1.6830 hn         1 VAN       0.316500
    131 H33          0.1320     8.3130    -0.8680 h1         1 VAN       0.109700
    132 H38          1.7990    10.9700    -1.3580 ha         1 VAN       0.141000
    133 H37          0.7450     8.7400     2.1420 ha         1 VAN       0.146000
    134 HN43        -0.2980     6.7740     0.6990 hn         1 VAN       0.347500
    135 H44          1.8550     6.0470     2.4470 h1         1 VAN       0.062700
    136 H48          3.2320     4.2420     2.4110 ha         1 VAN       0.094000
    137 HO3          1.3290    -0.2520     0.4930 ho         1 VAN       0.464000
    138 H51         -0.1360     1.4730     0.1380 ha         1 VAN       0.118000
    139 H49         -0.6030     3.8380     0.5590 ha         1 VAN       0.120000
    140 HN5         -0.8400     5.0600     4.7070 hn         1 VAN       0.346500
    141 H55          2.0590     5.1940     4.1390 h1         1 VAN       0.052700
    142 H58          2.4190     5.4390     6.4670 h1         1 VAN       0.063700
    143 HO9          0.5250     5.7130     7.8020 ho         1 VAN       0.447000
    144 H61         -0.7460     7.3870     6.1140 ha         1 VAN       0.152000
    145 H63         -0.8870     9.5850     5.0160 ha         1 VAN       0.143000
    146 H62          3.4260     7.1890     5.1520 ha         1 VAN       0.135000
    147 HN8          3.3950     3.5290     4.8010 hn         1 VAN       0.283500
    148 H69          2.0580     1.0800     4.0480 h1         1 VAN       0.085700
    149 HO7          5.7520     1.7730    -0.3040 ho         1 VAN       0.447000
    150 H76          7.1820     1.0400     1.3140 ha         1 VAN       0.112000
    151 HO8          7.6330     0.2710     4.7080 ho         1 VAN       0.475000
    152 H74          5.4700     0.7470     5.2250 ha         1 VAN       0.157000
    153 H1          -0.1160    13.1750     3.4430 h2         1 VAN       0.045700
    154 H2           1.8000    15.5580     3.4810 h1         1 VAN       0.093700
    155 H10         -0.9610    15.1560     4.7210 h1         1 VAN       0.050700
    156 H15         -0.5940    17.3670     5.2910 ho         1 VAN       0.532000
    157 H4          -0.0500    16.9560     2.4420 h1         1 VAN       0.079700
    158 HO4         -2.1120    17.6980     2.5680 ho         1 VAN       0.525000
    159 H5          -1.8460    14.4790     2.5000 h1         1 VAN       0.053700
    160 H6'1        -1.8000    14.5810     0.0720 h1         1 VAN       0.039200
    161 H6'2        -2.6480    15.9320     0.8120 h1         1 VAN       0.039200
    162 HO6         -1.1870    16.6880    -0.8000 ho         1 VAN       0.512000
    163 H1B          2.6540    15.9620     5.6410 h2         1 VAN       0.112700
    164 H2'1         3.5230    15.0860     7.6120 hc         1 VAN       0.083200
    165 H2'2         1.8290    14.6340     7.6540 hc         1 VAN       0.083200
    166 HN31         3.7810    11.7940     8.9490 hn         1 VAN       0.509000
    167 HN32         4.4620    13.2890     8.9460 hn         1 VAN       0.509000
    168 HN33         2.8810    13.0950     9.3900 hn         1 VAN       0.509000
    169 H3M1         2.3720    10.9700     7.2060 hc         1 VAN       0.084367
    170 H3M2         1.2110    12.2070     7.7140 hc         1 VAN       0.084367
    171 H3M3         1.6790    12.0850     6.0300 hc         1 VAN       0.084367
    172 H4B          4.5930    11.5970     6.4330 h1         1 VAN       0.058700
    173 HO4A         6.3250    12.9310     6.7710 ho         1 VAN       0.540000
    174 H5B          3.3350    12.5030     4.6040 h1         1 VAN       0.087700
    175 H5M1         5.0940    13.1550     3.0640 hc         1 VAN       0.051700
    176 H5M2         6.1750    13.5980     4.3870 hc         1 VAN       0.051700
    177 H5M3         5.7120    11.9120     4.1440 hc         1 VAN       0.051700
@<TRIPOS>BOND
     1     1     2 1   
     2     1   102 1   
     3     1   103 1   
     4     1   104 1   
     5     2     3 1   
     6     2   105 1   
     7     2   106 1   
     8     3     4 1   
     9     3     8 1   
    10     3   107 1   
    11     4     5 1   
    12     4   108 1   
    13     4   109 1   
    14     5     6 1   
    15     5     7 1   
    16     5   110 1   
    17     6   111 1   
    18     6   112 1   
    19     6   113 1   
    20     7   114 1   
    21     7   115 1   
    22     7   116 1   
    23     8     9 2   
    24     8    10 1   
    25    10    11 1   
    26    10   117 1   
    27    11    12 1   
    28    11    22 1   
    29    11   118 1   
    30    12    13 1   
    31    12    14 1   
    32    12   119 1   
    33    13   120 1   
    34    14    15 ar  
    35    14    21 ar  
    36    15    16 ar  
    37    15   121 1   
    38    16    17 1   
    39    16    18 ar  
    40    18    19 1   
    41    18    20 ar  
    42    19    36 1   
    43    20    21 ar  
    44    20   122 1   
    45    21   123 1   
    46    22    23 2   
    47    22    24 1   
    48    24    25 1   
    49    24   124 1   
    50    25    26 1   
    51    25    30 1   
    52    25   125 1   
    53    26    27 1   
    54    26   126 1   
    55    26   127 1   
    56    27    28 2   
    57    27    29 1   
    58    29   128 1   
    59    29   129 1   
    60    30    31 2   
    61    30    32 1   
    62    32    33 1   
    63    32   130 1   
    64    33    34 1   
    65    33    41 1   
    66    33   131 1   
    67    34    35 ar  
    68    34    40 ar  
    69    35    36 ar  
    70    35   132 1   
    71    36    37 ar  
    72    37    38 1   
    73    37    39 ar  
    74    38    81 1   
    75    39    40 ar  
    76    39    62 1   
    77    40   133 1   
    78    41    42 2   
    79    41    43 1   
    80    43    44 1   
    81    43   134 1   
    82    44    45 1   
    83    44    52 1   
    84    44   135 1   
    85    45    46 ar  
    86    45    51 ar  
    87    46    47 ar  
    88    46   136 1   
    89    47    48 ar  
    90    47    71 1   
    91    48    49 1   
    92    48    50 ar  
    93    49   137 1   
    94    50    51 ar  
    95    50   138 1   
    96    51   139 1   
    97    52    53 2   
    98    52    54 1   
    99    54    55 1   
   100    54   140 1   
   101    55    56 1   
   102    55    66 1   
   103    55   141 1   
   104    56    57 1   
   105    56    58 1   
   106    56   142 1   
   107    57   143 1   
   108    58    59 ar  
   109    58    65 ar  
   110    59    60 ar  
   111    59   144 1   
   112    60    61 ar  
   113    60   145 1   
   114    61    62 1   
   115    61    63 ar  
   116    63    64 1   
   117    63    65 ar  
   118    65   146 1   
   119    66    67 2   
   120    66    68 1   
   121    68    69 1   
   122    68   147 1   
   123    69    70 1   
   124    69    78 1   
   125    69   148 1   
   126    70    71 ar  
   127    70    77 ar  
   128    71    72 ar  
   129    72    73 1   
   130    72    74 ar  
   131    73   149 1   
   132    74    75 ar  
   133    74   150 1   
   134    75    76 1   
   135    75    77 ar  
   136    76   151 1   
   137    77   152 1   
   138    78    79 1   
   139    78    80 1   
   140    81    82 1   
   141    81    89 1   
   142    81   153 1   
   143    82    83 1   
   144    82    84 1   
   145    82   154 1   
   146    83    92 1   
   147    84    85 1   
   148    84    86 1   
   149    84   155 1   
   150    85   156 1   
   151    86    87 1   
   152    86    88 1   
   153    86   157 1   
   154    87   158 1   
   155    88    89 1   
   156    88    90 1   
   157    88   159 1   
   158    90    91 1   
   159    90   160 1   
   160    90   161 1   
   161    91   162 1   
   162    92    93 1   
   163    92   100 1   
   164    92   163 1   
   165    93    94 1   
   166    93   164 1   
   167    93   165 1   
   168    94    95 1   
   169    94    96 1   
   170    94    97 1   
   171    95   166 1   
   172    95   167 1   
   173    95   168 1   
   174    96   169 1   
   175    96   170 1   
   176    96   171 1   
   177    97    98 1   
   178    97    99 1   
   179    97   172 1   
   180    98   173 1   
   181    99   100 1   
   182    99   101 1   
   183    99   174 1   
   184   101   175 1   
   185   101   176 1   
   186   101   177 1   
@<TRIPOS>SUBSTRUCTURE
     1 VAN         1 TEMP              0 ****  ****    0 ROOT
