@<TRIPOS>MOLECULE
VAN
  177   186     1     0     0
SMALL
No Charge or Current Charge


@<TRIPOS>ATOM
      1 C1           9.5550     9.5040    -0.2270 c3         1 VAN       0.075900
      2 N2           8.8750     8.1300    -0.1080 ny         1 VAN      -0.809000
      3 C3           7.4140     8.0400    -0.5970 c3         1 VAN       0.007300
      4 C6           6.7830     6.6780    -0.2180 c3         1 VAN      -0.111400
      5 C7           6.7300     6.3820     1.3060 c3         1 VAN      -0.057700
      6 C8           5.9710     7.4720     2.0990 c3         1 VAN      -0.100600
      7 C9           6.1260     4.9860     1.5710 c3         1 VAN      -0.100600
      8 C4           7.2870     8.3210    -2.1240 c          1 VAN       0.594100
      9 O5           7.9520     7.7300    -2.9630 o          1 VAN      -0.578100
     10 N10          6.4050     9.3250    -2.4510 ns         1 VAN      -0.470900
     11 C11          6.2740     9.9420    -3.8050 c3         1 VAN       0.018700
     12 C14          6.4710    11.4860    -3.7600 c3         1 VAN       0.220600
     13 O15          7.8010    11.7930    -3.3210 oh         1 VAN      -0.669000
     14 C16          5.4500    12.1460    -2.8290 ca         1 VAN      -0.147300
     15 C17          4.2610    12.6810    -3.3720 ca         1 VAN      -0.067000
     16 C19          3.2280    13.1220    -2.5290 ca         1 VAN       0.108000
     17 Cl2          1.7090    13.6700    -3.2360 cl         1 VAN      -0.140000
     18 C21          3.3760    13.0200    -1.1330 ca         1 VAN       0.114100
     19 O22          2.2950    13.1890    -0.3040 os         1 VAN      -0.201200
     20 C20          4.5820    12.5540    -0.5850 ca         1 VAN      -0.126000
     21 C18          5.6210    12.1320    -1.4270 ca         1 VAN      -0.114000
     22 C12          4.9210     9.5760    -4.4750 c          1 VAN       0.593100
     23 O13          4.5750    10.0460    -5.5490 o          1 VAN      -0.573100
     24 N24          4.1050     8.7070    -3.7740 ns         1 VAN      -0.500900
     25 C25          2.8380     8.1280    -4.2900 c3         1 VAN       0.042700
     26 C28          3.1220     6.8050    -5.0510 c3         1 VAN      -0.179400
     27 C29          3.8640     5.7160    -4.2700 c          1 VAN       0.614100
     28 O30          4.2720     5.8470    -3.1300 o          1 VAN      -0.644100
     29 N31          4.0580     4.5570    -4.9280 nt         1 VAN      -0.589000
     30 C26          1.7380     7.9560    -3.1910 c          1 VAN       0.604100
     31 O27          0.6870     7.3690    -3.4080 o          1 VAN      -0.569100
     32 N32          2.0190     8.4750    -1.9430 ns         1 VAN      -0.481900
     33 C33          1.1280     8.3790    -0.7580 c3         1 VAN       0.077000
     34 C36          1.1500     9.6870     0.0730 ca         1 VAN      -0.030300
     35 C38          1.5870    10.8980    -0.5030 ca         1 VAN      -0.177000
     36 C40          1.7280    12.0700     0.2680 ca         1 VAN       0.141100
     37 C41          1.3760    12.0700     1.6300 ca         1 VAN       0.065100
     38 O42          1.5780    13.2070     2.3840 os         1 VAN      -0.324100
     39 C39          0.9180    10.8720     2.2210 ca         1 VAN       0.129100
     40 C37          0.7890     9.7020     1.4400 ca         1 VAN      -0.168000
     41 C34          1.5910     7.1620     0.0980 c          1 VAN       0.592100
     42 O35          2.7710     6.8670     0.2430 o          1 VAN      -0.622100
     43 N43          0.5950     6.4870     0.7740 ns         1 VAN      -0.473900
     44 C44          0.8490     5.6240     1.9410 c3         1 VAN       0.090000
     45 C47          1.2070     4.1820     1.5690 ca         1 VAN      -0.163300
     46 C48          2.4340     3.6350     1.9890 ca         1 VAN      -0.053000
     47 C50          2.7230     2.2600     1.8380 cp         1 VAN      -0.034000
     48 C52          1.7680     1.4390     1.1850 ca         1 VAN       0.190100
     49 O53          1.9910     0.1020     1.0160 oh         1 VAN      -0.502100
     50 C51          0.5610     1.9890     0.7190 ca         1 VAN      -0.208000
     51 C49          0.2750     3.3510     0.9190 ca         1 VAN      -0.032000
     52 C45         -0.3640     5.6530     2.9300 c          1 VAN       0.595100
     53 O46         -1.4490     6.1300     2.6270 o          1 VAN      -0.620100
     54 N54         -0.2210     5.0110     4.1440 ns         1 VAN      -0.471900
     55 C55          1.0640     4.7900     4.8630 c3         1 VAN       0.033700
     56 C58          1.1960     5.7210     6.0950 c3         1 VAN       0.208600
     57 O59          0.1890     5.4170     7.0670 oh         1 VAN      -0.613000
     58 C60          1.0870     7.1730     5.6110 ca         1 VAN      -0.113300
     59 C61         -0.1570     7.8450     5.5610 ca         1 VAN      -0.068000
     60 C63         -0.2700     9.0880     4.9170 ca         1 VAN      -0.104000
     61 C65          0.8510     9.6730     4.3120 ca         1 VAN       0.077100
     62 O66          0.6790    10.8280     3.5820 os         1 VAN      -0.248200
     63 C64          2.1120     9.0410     4.4070 ca         1 VAN       0.078000
     64 Cl6          3.5610     9.7600     3.6990 cl         1 VAN      -0.212000
     65 C62          2.2220     7.7980     5.0520 ca         1 VAN      -0.100000
     66 C56          1.2660     3.2820     5.1510 c          1 VAN       0.592100
     67 O57          0.3450     2.5010     5.3600 o          1 VAN      -0.559100
     68 N68          2.5720     2.8510     5.0150 ns         1 VAN      -0.448900
     69 C69          2.9430     1.4460     4.7190 c3         1 VAN      -0.010000
     70 C72          4.1480     1.3650     3.7590 ca         1 VAN       0.035700
     71 C73          4.0100     1.7170     2.3800 cp         1 VAN      -0.112000
     72 C75          5.1290     1.5820     1.5190 ca         1 VAN       0.164100
     73 O79          5.0370     1.8930     0.1940 oh         1 VAN      -0.534100
     74 C76          6.3620     1.1380     2.0080 ca         1 VAN      -0.268000
     75 C77          6.5030     0.8240     3.3600 ca         1 VAN       0.166100
     76 O78          7.7120     0.4040     3.8210 oh         1 VAN      -0.549100
     77 C74          5.4100     0.9350     4.2310 ca         1 VAN      -0.198000
     78 C70          3.0880     0.5980     6.0210 c          1 VAN       0.725000
     79 O71          3.5670     1.1210     7.0210 o          1 VAN      -0.700500
     80 O80          2.7250    -0.5700     5.9870 o          1 VAN      -0.700500
     81 C10          0.4450    13.8420     3.0060 c6         1 VAN       0.388300
     82 C2           0.9510    14.8510     4.0800 c6         1 VAN       0.152300
     83 O2           1.5920    14.1450     5.1800 os         1 VAN      -0.483000
     84 C13         -0.2300    15.7330     4.5950 c6         1 VAN       0.152300
     85 O3           0.1930    16.7620     5.5080 oh         1 VAN      -0.728000
     86 C22         -1.0020    16.3810     3.4130 c6         1 VAN       0.107300
     87 O4          -2.1120    17.1510     3.9310 oh         1 VAN      -0.724000
     88 C5          -1.4590    15.2530     2.4330 c6         1 VAN       0.153300
     89 O9          -0.2960    14.5260     1.9710 os         1 VAN      -0.450000
     90 C15         -2.2200    15.7950     1.1770 c3         1 VAN       0.167600
     91 O6          -1.4420    16.7140     0.3820 oh         1 VAN      -0.714000
     92 C1B          2.7150    14.8130     5.7770 c6         1 VAN       0.407300
     93 C2B          3.0800    14.1770     7.1480 c6         1 VAN      -0.120400
     94 C3B          3.7110    12.7550     7.0350 c6         1 VAN       0.142000
     95 N3           4.3500    12.4280     8.3800 nz         1 VAN      -0.981000
     96 C3M          2.6490    11.6570     6.7610 c3         1 VAN      -0.128100
     97 C4B          4.8530    12.7690     5.9600 c6         1 VAN       0.121300
     98 O4B          5.9510    13.5790     6.4450 oh         1 VAN      -0.742000
     99 C5B          4.2930    13.3590     4.6280 c6         1 VAN       0.157300
    100 O5B          3.8390    14.7120     4.8710 os         1 VAN      -0.444000
    101 C5M          5.3390    13.4270     3.4880 c3         1 VAN      -0.091100
    102 H11A        10.5860     9.4460     0.1340 hx         1 VAN       0.100700
    103 H12          9.5590     9.8250    -1.2730 hx         1 VAN       0.100700
    104 H13          9.0070    10.2390     0.3690 hx         1 VAN       0.100700
    105 HN21         9.4510     7.4220    -0.6190 hn         1 VAN       0.519500
    106 HN22         8.9450     7.8000     0.8790 hn         1 VAN       0.519500
    107 H3           6.8470     8.8280    -0.0960 hx         1 VAN       0.104700
    108 H61A         5.7600     6.6430    -0.6170 hc         1 VAN       0.101200
    109 H62A         7.3330     5.8760    -0.7270 hc         1 VAN       0.101200
    110 H7           7.7580     6.3550     1.6870 hc         1 VAN       0.014700
    111 H81          5.9290     7.2170     3.1650 hc         1 VAN       0.053033
    112 H82          6.4680     8.4460     2.0140 hc         1 VAN       0.053033
    113 H83          4.9430     7.5780     1.7360 hc         1 VAN       0.053033
    114 H91          6.0980     4.7660     2.6450 hc         1 VAN       0.053033
    115 H92          5.1030     4.9240     1.1790 hc         1 VAN       0.053033
    116 H93          6.7250     4.2080     1.0840 hc         1 VAN       0.053033
    117 HN0          5.9440     9.7920    -1.6780 hn         1 VAN       0.331500
    118 H11          7.0460     9.5260    -4.4640 h1         1 VAN       0.125700
    119 H14          6.3260    11.8790    -4.7770 h1         1 VAN       0.088700
    120 HO5          7.8330    12.7650    -3.1870 ho         1 VAN       0.468000
    121 H17          4.1080    12.7020    -4.4490 ha         1 VAN       0.157000
    122 H20          4.6880    12.4640     0.4930 ha         1 VAN       0.130000
    123 H18          6.5340    11.7400    -0.9830 ha         1 VAN       0.108000
    124 HN4          4.5330     8.2640    -2.9660 hn         1 VAN       0.333500
    125 H25          2.4030     8.8440    -5.0000 h1         1 VAN       0.108700
    126 H281         2.2120     6.3660    -5.4750 hc         1 VAN       0.085700
    127 H282         3.6970     6.9910    -5.9650 hc         1 VAN       0.085700
    128 HN11         3.7220     4.4450    -5.8730 hn         1 VAN       0.324500
    129 HN12         4.5410     3.8040    -4.4630 hn         1 VAN       0.324500
    130 HN3          2.9140     8.9300    -1.8300 hn         1 VAN       0.316500
    131 H33          0.0990     8.1880    -1.0880 h1         1 VAN       0.109700
    132 H38          1.8470    10.9340    -1.5560 ha         1 VAN       0.141000
    133 H37          0.4320     8.7970     1.9180 ha         1 VAN       0.146000
    134 HN43        -0.3630     6.7770     0.6070 hn         1 VAN       0.347500
    135 H44          1.6940     6.0780     2.4720 h1         1 VAN       0.062700
    136 H48          3.1620     4.2680     2.4880 ha         1 VAN       0.094000
    137 HO3          1.2270    -0.2780     0.5360 ho         1 VAN       0.464000
    138 H51         -0.1740     1.3610     0.2240 ha         1 VAN       0.118000
    139 H49         -0.6820     3.7540     0.5920 ha         1 VAN       0.120000
    140 HN5         -1.0680     4.9510     4.6960 hn         1 VAN       0.346500
    141 H55          1.8940     5.0690     4.2110 h1         1 VAN       0.052700
    142 H58          2.1920     5.5700     6.5360 h1         1 VAN       0.063700
    143 HO9          0.3340     6.0230     7.8260 ho         1 VAN       0.447000
    144 H61         -1.0550     7.3810     5.9650 ha         1 VAN       0.152000
    145 H63         -1.2400     9.5750     4.8430 ha         1 VAN       0.143000
    146 H62          3.1880     7.2980     5.0730 ha         1 VAN       0.135000
    147 HN8          3.2810     3.5610     4.8760 hn         1 VAN       0.283500
    148 H69          2.0960     0.9930     4.1880 h1         1 VAN       0.085700
    149 HO7          5.9010     1.6980    -0.2220 ho         1 VAN       0.447000
    150 H76          7.2180     1.0430     1.3450 ha         1 VAN       0.112000
    151 HO8          7.6350     0.2220     4.7820 ho         1 VAN       0.475000
    152 H74          5.5500     0.6830     5.2770 ha         1 VAN       0.157000
    153 H1          -0.1990    13.0940     3.4900 h2         1 VAN       0.045700
    154 H2           1.6880    15.4990     3.5840 h1         1 VAN       0.093700
    155 H10         -0.9310    15.0610     5.1140 h1         1 VAN       0.050700
    156 H15         -0.5750    17.3830     5.5390 ho         1 VAN       0.532000
    157 H4          -0.3050    17.0390     2.8690 h1         1 VAN       0.079700
    158 HO4         -2.4060    17.7620     3.2120 ho         1 VAN       0.525000
    159 H5          -2.1260    14.5540     2.9600 h1         1 VAN       0.053700
    160 H6'1        -2.5130    14.9280     0.5690 h1         1 VAN       0.039200
    161 H6'2        -3.1500    16.2750     1.5120 h1         1 VAN       0.039200
    162 HO6         -1.9370    16.8590    -0.4590 ho         1 VAN       0.512000
    163 H1B          2.4710    15.8740     5.9420 h2         1 VAN       0.112700
    164 H2'1         3.7780    14.8560     7.6540 hc         1 VAN       0.083200
    165 H2'2         2.1840    14.1500     7.7810 hc         1 VAN       0.083200
    166 HN31         4.6900    11.4580     8.4390 hn         1 VAN       0.509000
    167 HN32         5.1870    13.0130     8.5250 hn         1 VAN       0.509000
    168 HN33         3.7300    12.5760     9.1890 hn         1 VAN       0.509000
    169 H3M1         3.1030    10.6590     6.7500 hc         1 VAN       0.084367
    170 H3M2         1.8720    11.6520     7.5350 hc         1 VAN       0.084367
    171 H3M3         2.1420    11.7870     5.8010 hc         1 VAN       0.084367
    172 H4B          5.1940    11.7370     5.7840 h1         1 VAN       0.058700
    173 HO4A         5.8060    14.4790     6.0670 ho         1 VAN       0.540000
    174 H5B          3.4550    12.7470     4.2650 h1         1 VAN       0.087700
    175 H5M1         4.8890    13.8380     2.5760 hc         1 VAN       0.051700
    176 H5M2         6.1940    14.0600     3.7520 hc         1 VAN       0.051700
    177 H5M3         5.7210    12.4280     3.2480 hc         1 VAN       0.051700
@<TRIPOS>BOND
     1     1     2 1   
     2     1   102 1   
     3     1   103 1   
     4     1   104 1   
     5     2     3 1   
     6     2   105 1   
     7     2   106 1   
     8     3     4 1   
     9     3     8 1   
    10     3   107 1   
    11     4     5 1   
    12     4   108 1   
    13     4   109 1   
    14     5     6 1   
    15     5     7 1   
    16     5   110 1   
    17     6   111 1   
    18     6   112 1   
    19     6   113 1   
    20     7   114 1   
    21     7   115 1   
    22     7   116 1   
    23     8     9 2   
    24     8    10 1   
    25    10    11 1   
    26    10   117 1   
    27    11    12 1   
    28    11    22 1   
    29    11   118 1   
    30    12    13 1   
    31    12    14 1   
    32    12   119 1   
    33    13   120 1   
    34    14    15 ar  
    35    14    21 ar  
    36    15    16 ar  
    37    15   121 1   
    38    16    17 1   
    39    16    18 ar  
    40    18    19 1   
    41    18    20 ar  
    42    19    36 1   
    43    20    21 ar  
    44    20   122 1   
    45    21   123 1   
    46    22    23 2   
    47    22    24 1   
    48    24    25 1   
    49    24   124 1   
    50    25    26 1   
    51    25    30 1   
    52    25   125 1   
    53    26    27 1   
    54    26   126 1   
    55    26   127 1   
    56    27    28 2   
    57    27    29 1   
    58    29   128 1   
    59    29   129 1   
    60    30    31 2   
    61    30    32 1   
    62    32    33 1   
    63    32   130 1   
    64    33    34 1   
    65    33    41 1   
    66    33   131 1   
    67    34    35 ar  
    68    34    40 ar  
    69    35    36 ar  
    70    35   132 1   
    71    36    37 ar  
    72    37    38 1   
    73    37    39 ar  
    74    38    81 1   
    75    39    40 ar  
    76    39    62 1   
    77    40   133 1   
    78    41    42 2   
    79    41    43 1   
    80    43    44 1   
    81    43   134 1   
    82    44    45 1   
    83    44    52 1   
    84    44   135 1   
    85    45    46 ar  
    86    45    51 ar  
    87    46    47 ar  
    88    46   136 1   
    89    47    48 ar  
    90    47    71 1   
    91    48    49 1   
    92    48    50 ar  
    93    49   137 1   
    94    50    51 ar  
    95    50   138 1   
    96    51   139 1   
    97    52    53 2   
    98    52    54 1   
    99    54    55 1   
   100    54   140 1   
   101    55    56 1   
   102    55    66 1   
   103    55   141 1   
   104    56    57 1   
   105    56    58 1   
   106    56   142 1   
   107    57   143 1   
   108    58    59 ar  
   109    58    65 ar  
   110    59    60 ar  
   111    59   144 1   
   112    60    61 ar  
   113    60   145 1   
   114    61    62 1   
   115    61    63 ar  
   116    63    64 1   
   117    63    65 ar  
   118    65   146 1   
   119    66    67 2   
   120    66    68 1   
   121    68    69 1   
   122    68   147 1   
   123    69    70 1   
   124    69    78 1   
   125    69   148 1   
   126    70    71 ar  
   127    70    77 ar  
   128    71    72 ar  
   129    72    73 1   
   130    72    74 ar  
   131    73   149 1   
   132    74    75 ar  
   133    74   150 1   
   134    75    76 1   
   135    75    77 ar  
   136    76   151 1   
   137    77   152 1   
   138    78    79 1   
   139    78    80 1   
   140    81    82 1   
   141    81    89 1   
   142    81   153 1   
   143    82    83 1   
   144    82    84 1   
   145    82   154 1   
   146    83    92 1   
   147    84    85 1   
   148    84    86 1   
   149    84   155 1   
   150    85   156 1   
   151    86    87 1   
   152    86    88 1   
   153    86   157 1   
   154    87   158 1   
   155    88    89 1   
   156    88    90 1   
   157    88   159 1   
   158    90    91 1   
   159    90   160 1   
   160    90   161 1   
   161    91   162 1   
   162    92    93 1   
   163    92   100 1   
   164    92   163 1   
   165    93    94 1   
   166    93   164 1   
   167    93   165 1   
   168    94    95 1   
   169    94    96 1   
   170    94    97 1   
   171    95   166 1   
   172    95   167 1   
   173    95   168 1   
   174    96   169 1   
   175    96   170 1   
   176    96   171 1   
   177    97    98 1   
   178    97    99 1   
   179    97   172 1   
   180    98   173 1   
   181    99   100 1   
   182    99   101 1   
   183    99   174 1   
   184   101   175 1   
   185   101   176 1   
   186   101   177 1   
@<TRIPOS>SUBSTRUCTURE
     1 VAN         1 TEMP              0 ****  ****    0 ROOT
