@<TRIPOS>MOLECULE
VAO
   25    26     1     0     0
SMALL
abcg2


@<TRIPOS>ATOM
      1 N1          -4.0030    -3.3490     0.0260 n1         1 VAO      -0.499000
      2 C           -3.5700    -2.2800     0.0060 cg         1 VAO       0.352000
      3 C1          -3.0420    -0.9590    -0.0190 ca         1 VAO      -0.103000
      4 C6          -1.6670    -0.7630    -0.0190 ca         1 VAO      -0.008000
      5 C5          -1.1090     0.5110    -0.0420 cp         1 VAO      -0.241500
      6 C4          -1.9910     1.6210    -0.0670 ca         1 VAO       0.223100
      7 O2          -1.5650     2.8730    -0.0890 oh         1 VAO      -0.577100
      8 C3          -3.3770     1.4120    -0.0670 ca         1 VAO      -0.199000
      9 C2          -3.9030     0.1430    -0.0440 ca         1 VAO      -0.033000
     10 C7           0.3580     0.6980    -0.0400 cp         1 VAO       0.378500
     11 N            0.7920     1.9630    -0.0670 nb         1 VAO      -0.768000
     12 C11          2.0950     2.2170    -0.0670 ca         1 VAO       0.320900
     13 C10          3.0490     1.2190    -0.0400 ca         1 VAO      -0.128000
     14 C9           2.6270    -0.1060    -0.0100 ca         1 VAO      -0.098600
     15 C8           1.2650    -0.3600    -0.0100 ca         1 VAO      -0.119000
     16 C12          3.6330    -1.2600     0.0210 c          1 VAO       0.714600
     17 O1           3.1520    -2.4050     0.0500 o          1 VAO      -0.703000
     18 O            4.8320    -0.9350     0.0150 o          1 VAO      -0.703000
     19 H6          -1.0260    -1.6330     0.0010 ha         1 VAO       0.135000
     20 H2          -4.9750     0.0010    -0.0440 ha         1 VAO       0.110000
     21 H3          -4.0330     2.2730    -0.0860 ha         1 VAO       0.120000
     22 H8           0.9340    -1.3880     0.0150 ha         1 VAO       0.145000
     23 H11          2.3780     3.2620    -0.0900 h4         1 VAO      -0.001900
     24 H10          4.1000     1.4690    -0.0410 ha         1 VAO       0.142000
     25 H21         -0.5600     2.8420    -0.0870 ho         1 VAO       0.541000
@<TRIPOS>BOND
     1     1     2 3   
     2     2     3 1   
     3     3     4 ar  
     4     3     9 ar  
     5     4     5 ar  
     6     4    19 1   
     7     5     6 ar  
     8     5    10 1   
     9     6     7 1   
    10     6     8 ar  
    11     7    25 1   
    12     8     9 ar  
    13     8    21 1   
    14     9    20 1   
    15    10    11 ar  
    16    10    15 ar  
    17    11    12 ar  
    18    12    13 ar  
    19    12    23 1   
    20    13    14 ar  
    21    13    24 1   
    22    14    15 ar  
    23    14    16 1   
    24    15    22 1   
    25    16    17 1   
    26    16    18 1   
@<TRIPOS>SUBSTRUCTURE
     1 VAO         1 TEMP              0 ****  ****    0 ROOT
