@<TRIPOS>MOLECULE
VAO
   25    26     1     0     0
SMALL
No Charge or Current Charge


@<TRIPOS>ATOM
      1 N1          -4.0730    -3.3570    -0.4870 n1         1 VAO      -0.499000
      2 C           -3.6390    -2.2820    -0.3430 cg         1 VAO       0.352000
      3 C1          -3.0940    -0.9640    -0.1670 ca         1 VAO      -0.103000
      4 C6          -1.7020    -0.7620    -0.2340 ca         1 VAO      -0.008000
      5 C5          -1.1270     0.5300    -0.0650 cp         1 VAO      -0.241500
      6 C4          -2.0270     1.6100     0.1540 ca         1 VAO       0.223100
      7 O2          -1.5560     2.8720     0.2950 oh         1 VAO      -0.577100
      8 C3          -3.4120     1.4080     0.2240 ca         1 VAO      -0.199000
      9 C2          -3.9500     0.1240     0.0680 ca         1 VAO      -0.033000
     10 C7           0.3700     0.7210    -0.1190 cp         1 VAO       0.378500
     11 N            0.8120     1.9730    -0.4000 nb         1 VAO      -0.768000
     12 C11          2.1440     2.2000    -0.4700 ca         1 VAO       0.320900
     13 C10          3.1010     1.2010    -0.2440 ca         1 VAO      -0.128000
     14 C9           2.6810    -0.1070     0.0770 ca         1 VAO      -0.098600
     15 C8           1.2870    -0.3310     0.1400 ca         1 VAO      -0.119000
     16 C12          3.6800    -1.2190     0.3460 c          1 VAO       0.714600
     17 O1           3.2540    -2.3350     0.6130 o          1 VAO      -0.703000
     18 O            4.8740    -0.9580     0.2860 o          1 VAO      -0.703000
     19 H6          -1.0660    -1.6220    -0.4360 ha         1 VAO       0.135000
     20 H2          -5.0280    -0.0220     0.1220 ha         1 VAO       0.110000
     21 H3          -4.0730     2.2530     0.3970 ha         1 VAO       0.120000
     22 H8           0.9180    -1.3160     0.4040 ha         1 VAO       0.145000
     23 H11          2.4490     3.2170    -0.7090 h4         1 VAO      -0.001900
     24 H10          4.1560     1.4530    -0.3120 ha         1 VAO       0.142000
     25 H21         -0.5860     2.7780     0.0640 ho         1 VAO       0.541000
@<TRIPOS>BOND
     1     1     2 3   
     2     2     3 1   
     3     3     4 ar  
     4     3     9 ar  
     5     4     5 ar  
     6     4    19 1   
     7     5     6 ar  
     8     5    10 1   
     9     6     7 1   
    10     6     8 ar  
    11     7    25 1   
    12     8     9 ar  
    13     8    21 1   
    14     9    20 1   
    15    10    11 ar  
    16    10    15 ar  
    17    11    12 ar  
    18    12    13 ar  
    19    12    23 1   
    20    13    14 ar  
    21    13    24 1   
    22    14    15 ar  
    23    14    16 1   
    24    15    22 1   
    25    16    17 1   
    26    16    18 1   
@<TRIPOS>SUBSTRUCTURE
     1 VAO         1 TEMP              0 ****  ****    0 ROOT
