@<TRIPOS>MOLECULE
VAP
   36    37     1     0     0
SMALL
bcc


@<TRIPOS>ATOM
      1 C1          -0.7240    -1.6980     0.0410 ca         1 VAP      -0.174000
      2 C2           0.5520    -1.1170     0.0070 ca         1 VAP      -0.088800
      3 C3           0.7050     0.2790    -0.0680 ca         1 VAP       0.066600
      4 C4          -0.4650     1.0670     0.0110 ca         1 VAP       0.064100
      5 C5          -1.7190     0.4750     0.0410 ca         1 VAP       0.096100
      6 C6          -1.8610    -0.9230     0.0230 ca         1 VAP       0.103100
      7 C7           1.7330    -1.9420     0.1030 cc         1 VAP       0.013600
      8 C8           2.9380    -1.3420     0.1540 cd         1 VAP      -0.240200
      9 C9           3.1180     0.0850     0.0110 c          1 VAP       0.698700
     10 N10          1.9750     0.8330    -0.1890 n          1 VAP      -0.346000
     11 O11          4.2280     0.6080     0.0150 o          1 VAP      -0.629500
     12 C12          2.1810     2.1910    -0.6930 c3         1 VAP       0.085300
     13 O13         -0.4230     2.4200     0.0980 os         1 VAP      -0.330900
     14 O14         -2.8210     1.2510     0.1480 os         1 VAP      -0.318900
     15 O15         -3.1220    -1.3850     0.0310 os         1 VAP      -0.298900
     16 C16          1.6150    -3.4300     0.1800 c3         1 VAP      -0.060900
     17 C17         -3.3190    -2.7850     0.0520 c3         1 VAP       0.120700
     18 C18         -3.3470     1.7050    -1.0950 c3         1 VAP       0.130700
     19 C19         -0.3290     2.9050     1.4330 c3         1 VAP       0.123700
     20 H1          -0.7990    -2.7750     0.0800 ha         1 VAP       0.142000
     21 H8           3.8430    -1.9260     0.2640 ha         1 VAP       0.157000
     22 H12          2.1390     2.9400     0.0950 h1         1 VAP       0.055700
     23 H12A         3.1650     2.2350    -1.1470 h1         1 VAP       0.055700
     24 H12B         1.4440     2.4220    -1.4530 h1         1 VAP       0.055700
     25 H16          1.0990    -3.8300    -0.6940 hc         1 VAP       0.050367
     26 H16A         2.5980    -3.8930     0.2350 hc         1 VAP       0.050367
     27 H16B         1.0480    -3.7410     1.0600 hc         1 VAP       0.050367
     28 H17         -2.8900    -3.2720    -0.8280 h1         1 VAP       0.042033
     29 H17A        -2.8960    -3.2430     0.9510 h1         1 VAP       0.042033
     30 H17B        -4.3940    -2.9450     0.0510 h1         1 VAP       0.042033
     31 H18         -3.6660     0.8710    -1.7240 h1         1 VAP       0.039367
     32 H18A        -4.2130     2.3230    -0.8670 h1         1 VAP       0.039367
     33 H18B        -2.6200     2.3050    -1.6450 h1         1 VAP       0.039367
     34 H19         -0.3560     3.9920     1.3790 h1         1 VAP       0.042033
     35 H19A        -1.1640     2.5590     2.0450 h1         1 VAP       0.042033
     36 H19B         0.6070     2.5990     1.9070 h1         1 VAP       0.042033
@<TRIPOS>BOND
     1     1     2 ar  
     2     1     6 ar  
     3     1    20 1   
     4     2     3 ar  
     5     2     7 1   
     6     3     4 ar  
     7     3    10 1   
     8     4     5 ar  
     9     4    13 1   
    10     5     6 ar  
    11     5    14 1   
    12     6    15 1   
    13     7     8 2   
    14     7    16 1   
    15     8     9 1   
    16     8    21 1   
    17     9    10 1   
    18     9    11 2   
    19    10    12 1   
    20    12    22 1   
    21    12    23 1   
    22    12    24 1   
    23    13    19 1   
    24    14    18 1   
    25    15    17 1   
    26    16    25 1   
    27    16    26 1   
    28    16    27 1   
    29    17    28 1   
    30    17    29 1   
    31    17    30 1   
    32    18    31 1   
    33    18    32 1   
    34    18    33 1   
    35    19    34 1   
    36    19    35 1   
    37    19    36 1   
@<TRIPOS>SUBSTRUCTURE
     1 VAP         1 TEMP              0 ****  ****    0 ROOT
