@<TRIPOS>MOLECULE
VAP
   36    37     1     0     0
SMALL
No Charge or Current Charge


@<TRIPOS>ATOM
      1 C1          -0.6870    -1.7700     0.0720 ca         1 VAP      -0.156000
      2 C2           0.5940    -1.1850    -0.0430 ca         1 VAP      -0.088800
      3 C3           0.7150     0.2220    -0.2060 ca         1 VAP       0.066600
      4 C4          -0.4610     1.0230    -0.0450 ca         1 VAP       0.064100
      5 C5          -1.7420     0.4160     0.0260 ca         1 VAP       0.096100
      6 C6          -1.8530    -0.9840     0.0790 ca         1 VAP       0.103100
      7 C7           1.7790    -2.0590     0.0460 cc         1 VAP       0.013600
      8 C8           2.9910    -1.4110     0.1390 cd         1 VAP      -0.290200
      9 C9           3.2020     0.0350     0.0160 c          1 VAP       0.556200
     10 N10          2.0480     0.7980    -0.2400 n          1 VAP      -0.279000
     11 O11          4.3230     0.5220     0.0920 o          1 VAP      -0.554000
     12 C12          2.2640     2.1700    -0.7720 c3         1 VAP       0.085300
     13 O13         -0.3580     2.3950     0.0800 os         1 VAP      -0.354100
     14 O14         -2.9070     1.1650     0.0600 os         1 VAP      -0.342100
     15 O15         -3.1180    -1.5460     0.1660 os         1 VAP      -0.322100
     16 C16          1.7010    -3.5660     0.1050 c3         1 VAP      -0.060900
     17 C17         -3.3370    -2.9670     0.2220 c3         1 VAP       0.143900
     18 C18         -3.2120     2.0900    -0.9990 c3         1 VAP       0.153900
     19 C19         -0.7100     3.0280     1.3240 c3         1 VAP       0.146900
     20 H1          -0.7750    -2.8460     0.1690 ha         1 VAP       0.124000
     21 H8           3.9110    -1.9660     0.2720 ha         1 VAP       0.207000
     22 H12          2.2040     2.8990     0.0460 h1         1 VAP       0.055700
     23 H12A         3.2450     2.2590    -1.2540 h1         1 VAP       0.055700
     24 H12B         1.5080     2.4040    -1.5320 h1         1 VAP       0.055700
     25 H16          1.1290    -3.9630    -0.7420 hc         1 VAP       0.050367
     26 H16A         2.6980    -4.0230     0.0670 hc         1 VAP       0.050367
     27 H16B         1.2210    -3.8980     1.0330 hc         1 VAP       0.050367
     28 H17         -2.9340    -3.4590    -0.6730 h1         1 VAP       0.042033
     29 H17A        -2.8600    -3.4020     1.1100 h1         1 VAP       0.042033
     30 H17B        -4.4110    -3.1840     0.2740 h1         1 VAP       0.042033
     31 H18         -3.2150     1.5770    -1.9690 h1         1 VAP       0.039367
     32 H18A        -4.2060     2.5290    -0.8430 h1         1 VAP       0.039367
     33 H18B        -2.4880     2.9110    -1.0440 h1         1 VAP       0.039367
     34 H19         -0.5420     4.1100     1.2600 h1         1 VAP       0.042033
     35 H19A        -1.7640     2.8620     1.5740 h1         1 VAP       0.042033
     36 H19B        -0.0950     2.6340     2.1430 h1         1 VAP       0.042033
@<TRIPOS>BOND
     1     1     2 ar  
     2     1     6 ar  
     3     1    20 1   
     4     2     3 ar  
     5     2     7 1   
     6     3     4 ar  
     7     3    10 1   
     8     4     5 ar  
     9     4    13 1   
    10     5     6 ar  
    11     5    14 1   
    12     6    15 1   
    13     7     8 2   
    14     7    16 1   
    15     8     9 1   
    16     8    21 1   
    17     9    10 1   
    18     9    11 2   
    19    10    12 1   
    20    12    22 1   
    21    12    23 1   
    22    12    24 1   
    23    13    19 1   
    24    14    18 1   
    25    15    17 1   
    26    16    25 1   
    27    16    26 1   
    28    16    27 1   
    29    17    28 1   
    30    17    29 1   
    31    17    30 1   
    32    18    31 1   
    33    18    32 1   
    34    18    33 1   
    35    19    34 1   
    36    19    35 1   
    37    19    36 1   
@<TRIPOS>SUBSTRUCTURE
     1 VAP         1 TEMP              0 ****  ****    0 ROOT
