@<TRIPOS>MOLECULE
VAQ
   85    91     1     0     0
SMALL
abcg2


@<TRIPOS>ATOM
      1 C10         44.1780   -28.0360    21.4970 c3         1 VAQ       0.204100
      2 C13         41.5910   -25.9720    20.6710 cx         1 VAQ      -0.109700
      3 C15         41.8810   -25.9800    19.1920 cx         1 VAQ      -0.129400
      4 C17         41.1060   -25.3770    23.7050 cy         1 VAQ      -0.068900
      5 C20         43.4100   -26.7140    23.4960 cy         1 VAQ       0.155800
      6 C21         43.6580   -30.4000    22.1680 ca         1 VAQ      -0.128000
      7 C22         43.9300   -31.5680    22.8750 ca         1 VAQ       0.161100
      8 C26         44.4120   -37.6940    23.7150 c6         1 VAQ      -0.091400
      9 C28         42.7160   -36.0120    25.3600 c6         1 VAQ       0.198800
     10 C02         44.2380   -35.9640    25.5430 c6         1 VAQ       0.150000
     11 C03         44.6900   -34.5810    26.0440 c3         1 VAQ       0.067000
     12 C06         45.0980   -31.6640    23.6500 ca         1 VAQ      -0.242600
     13 C07         45.9800   -30.5810    23.6590 ca         1 VAQ      -0.029000
     14 C08         45.6990   -29.4160    22.9640 ca         1 VAQ      -0.152000
     15 C09         44.5250   -29.3140    22.2160 ca         1 VAQ      -0.023300
     16 C12         42.7180   -25.9970    21.6510 cy         1 VAQ       0.199500
     17 C14         41.3640   -24.7300    19.8510 cx         1 VAQ      -0.129400
     18 C16         42.5310   -25.5140    23.1120 cy         1 VAQ      -0.093000
     19 C18         41.3720   -23.8740    23.9820 cy         1 VAQ      -0.092400
     20 C19         42.8430   -24.0630    23.5260 cy         1 VAQ      -0.068900
     21 C25         44.9310   -36.3580    24.2430 c6         1 VAQ      -0.057400
     22 C27         42.8870   -37.7130    23.6150 c6         1 VAQ       0.226800
     23 C30         41.3600   -38.0600    25.5470 ca         1 VAQ       0.425900
     24 C32         40.0540   -38.3370    27.4040 ca         1 VAQ       0.191900
     25 C34         39.9460   -39.9720    25.8410 ca         1 VAQ       0.396900
     26 C36         39.6090   -41.7510    24.1560 c3         1 VAQ       0.280100
     27 C37         40.9910   -42.3190    23.9000 ca         1 VAQ      -0.111300
     28 C38         41.8110   -42.7480    24.9410 ca         1 VAQ      -0.099500
     29 C39         43.0630   -43.2950    24.6770 ca         1 VAQ      -0.109500
     30 C40         43.5090   -43.4220    23.3640 ca         1 VAQ      -0.107000
     31 C41         42.6960   -42.9920    22.3190 ca         1 VAQ      -0.109500
     32 C42         41.4470   -42.4420    22.5880 ca         1 VAQ      -0.099500
     33 C43         40.8570   -39.2750    25.0510 ca         1 VAQ      -0.360000
     34 N04         44.4580   -33.4810    25.1200 ns         1 VAQ      -0.516900
     35 N11         43.1100   -27.3250    22.1820 nq         1 VAQ      -0.704600
     36 N29         42.2830   -37.3160    24.8830 nh         1 VAQ      -0.782300
     37 N31         40.9300   -37.5900    26.7470 nb         1 VAQ      -0.312000
     38 N33         39.5350   -39.5020    27.0460 nb         1 VAQ      -0.292000
     39 N35         39.4280   -41.1700    25.4680 nu         1 VAQ      -0.938100
     40 O01         44.6390   -36.9180    26.5360 oh         1 VAQ      -0.652000
     41 O24         46.6330   -33.2730    24.4930 o          1 VAQ      -0.582100
     42 H1          43.8350   -28.2570    20.4830 h1         1 VAQ       0.043700
     43 H2          45.0810   -27.4090    21.4140 h1         1 VAQ       0.043700
     44 H3          40.7050   -26.5080    20.9880 hc         1 VAQ       0.089700
     45 H4          41.2090   -26.5300    18.5470 hc         1 VAQ       0.070700
     46 H5          42.9200   -25.9970    18.8860 hc         1 VAQ       0.070700
     47 H6          40.2880   -25.5870    23.0170 hc         1 VAQ       0.052450
     48 H7          40.9640   -25.9760    24.6060 hc         1 VAQ       0.052450
     49 H8          43.1170   -27.3090    24.3640 h1         1 VAQ       0.050700
     50 H9          44.4660   -26.4250    23.5950 h1         1 VAQ       0.050700
     51 H10         42.7550   -30.3560    21.5720 ha         1 VAQ       0.140000
     52 H11         44.7290   -38.5030    24.3770 hc         1 VAQ       0.058200
     53 H12         44.8310   -37.8950    22.7270 hc         1 VAQ       0.058200
     54 H13         42.4150   -35.2470    24.6360 h1         1 VAQ       0.063200
     55 H14         42.2220   -35.8000    26.3040 h1         1 VAQ       0.063200
     56 H15         45.7580   -34.6320    26.2480 h1         1 VAQ       0.065700
     57 H16         44.1710   -34.3590    26.9790 h1         1 VAQ       0.065700
     58 H17         46.8890   -30.6660    24.2400 ha         1 VAQ       0.131000
     59 H18         46.3860   -28.5810    23.0030 ha         1 VAQ       0.119000
     60 H19         43.5880   -25.4740    21.2200 h1         1 VAQ       0.033700
     61 H20         42.0530   -23.9070    19.9890 hc         1 VAQ       0.070700
     62 H21         40.3420   -24.4350    19.6540 hc         1 VAQ       0.070700
     63 H22         41.2430   -23.5590    25.0180 hc         1 VAQ       0.048700
     64 H23         40.7960   -23.2030    23.3450 hc         1 VAQ       0.048700
     65 H24         43.5670   -23.9990    24.3400 hc         1 VAQ       0.052450
     66 H25         43.1760   -23.4160    22.7130 hc         1 VAQ       0.052450
     67 H26         46.0090   -36.4000    24.4100 hc         1 VAQ       0.057200
     68 H27         44.7420   -35.5740    23.5060 hc         1 VAQ       0.057200
     69 H28         42.5480   -37.0270    22.8290 h1         1 VAQ       0.048700
     70 H29         42.5590   -38.7080    23.3390 h1         1 VAQ       0.048700
     71 H30         39.7270   -37.9450    28.3640 h5         1 VAQ       0.038100
     72 H31         39.3800   -41.0170    23.3760 h1         1 VAQ       0.051200
     73 H32         38.8690   -42.5470    24.0580 h1         1 VAQ       0.051200
     74 H33         41.4680   -42.6400    25.9620 ha         1 VAQ       0.116500
     75 H34         43.6900   -43.6200    25.4970 ha         1 VAQ       0.114500
     76 H35         44.4840   -43.8460    23.1580 ha         1 VAQ       0.114000
     77 H36         43.0370   -43.0790    21.2950 ha         1 VAQ       0.114500
     78 H37         40.8230   -42.0950    21.7720 ha         1 VAQ       0.116500
     79 H38         41.1590   -39.6770    24.1010 ha         1 VAQ       0.133000
     80 H39         43.6090   -32.9510    25.2470 hn         1 VAQ       0.314500
     81 H41         38.6870   -41.5250    26.0490 hn         1 VAQ       0.505000
     82 H42         44.0990   -36.7890    27.3280 ho         1 VAQ       0.448000
     83 H43         43.3520   -33.3910    23.1620 ho         1 VAQ       0.473000
     84 O23         43.0260   -32.5820    22.7390 oh         1 VAQ      -0.544100
     85 C05         45.4740   -32.8690    24.4490 c          1 VAQ       0.604700
@<TRIPOS>BOND
     1     1    15 1   
     2     1    35 1   
     3     1    42 1   
     4     1    43 1   
     5     2     3 1   
     6     2    16 1   
     7     2    17 1   
     8     2    44 1   
     9     3    17 1   
    10     3    45 1   
    11     3    46 1   
    12     4    18 1   
    13     4    19 1   
    14     4    47 1   
    15     4    48 1   
    16     5    18 1   
    17     5    35 1   
    18     5    49 1   
    19     5    50 1   
    20     6     7 ar  
    21     6    15 ar  
    22     6    51 1   
    23     7    12 ar  
    24     7    84 1   
    25     8    21 1   
    26     8    22 1   
    27     8    52 1   
    28     8    53 1   
    29     9    10 1   
    30     9    36 1   
    31     9    54 1   
    32     9    55 1   
    33    10    11 1   
    34    10    21 1   
    35    10    40 1   
    36    11    34 1   
    37    11    56 1   
    38    11    57 1   
    39    12    13 ar  
    40    12    85 1   
    41    13    14 ar  
    42    13    58 1   
    43    14    15 ar  
    44    14    59 1   
    45    16    18 1   
    46    16    35 1   
    47    16    60 1   
    48    17    61 1   
    49    17    62 1   
    50    18    20 1   
    51    19    20 1   
    52    19    63 1   
    53    19    64 1   
    54    20    65 1   
    55    20    66 1   
    56    21    67 1   
    57    21    68 1   
    58    22    36 1   
    59    22    69 1   
    60    22    70 1   
    61    23    33 ar  
    62    23    36 1   
    63    23    37 ar  
    64    24    37 ar  
    65    24    38 ar  
    66    24    71 1   
    67    25    33 ar  
    68    25    38 ar  
    69    25    39 1   
    70    26    27 1   
    71    26    39 1   
    72    26    72 1   
    73    26    73 1   
    74    27    28 ar  
    75    27    32 ar  
    76    28    29 ar  
    77    28    74 1   
    78    29    30 ar  
    79    29    75 1   
    80    30    31 ar  
    81    30    76 1   
    82    31    32 ar  
    83    31    77 1   
    84    32    78 1   
    85    33    79 1   
    86    34    80 1   
    87    34    85 1   
    88    39    81 1   
    89    40    82 1   
    90    41    85 2   
    91    83    84 1   
@<TRIPOS>SUBSTRUCTURE
     1 VAQ         1 TEMP              0 ****  ****    0 ROOT
