@<TRIPOS>MOLECULE
VAQ
   85    91     1     0     0
SMALL
No Charge or Current Charge


@<TRIPOS>ATOM
      1 C10         43.5570   -28.6280    21.3230 c3         1 VAQ       0.204100
      2 C13         41.0280   -26.2380    20.8000 cx         1 VAQ      -0.109700
      3 C15         40.5580   -26.3410    19.3680 cx         1 VAQ      -0.129400
      4 C17         41.7510   -25.2960    23.6010 cy         1 VAQ      -0.068900
      5 C20         43.8900   -26.5810    22.9310 cy         1 VAQ       0.155800
      6 C21         43.0990   -30.3650    23.1220 ca         1 VAQ      -0.128000
      7 C22         43.5120   -31.3510    24.0370 ca         1 VAQ       0.161100
      8 C26         45.3780   -37.6570    24.6080 c6         1 VAQ      -0.091400
      9 C28         43.2140   -36.1170    25.8900 c6         1 VAQ       0.198800
     10 C02         44.6890   -35.8910    26.3480 c6         1 VAQ       0.150000
     11 C03         44.9060   -34.4420    26.8970 c3         1 VAQ       0.067000
     12 C06         44.8890   -31.6890    24.1530 ca         1 VAQ      -0.242600
     13 C07         45.8110   -31.0050    23.3230 ca         1 VAQ      -0.029000
     14 C08         45.3860   -30.0240    22.4150 ca         1 VAQ      -0.152000
     15 C09         44.0260   -29.6970    22.3070 ca         1 VAQ      -0.023300
     16 C12         42.5100   -26.2340    21.2110 cy         1 VAQ       0.199500
     17 C14         40.3140   -25.0740    20.1520 cx         1 VAQ      -0.129400
     18 C16         42.8400   -25.5300    22.5450 cy         1 VAQ      -0.093000
     19 C18         42.0000   -23.7680    23.1730 cy         1 VAQ      -0.092400
     20 C19         43.3860   -24.1130    22.4360 cy         1 VAQ      -0.068900
     21 C25         45.6260   -36.2200    25.1470 c6         1 VAQ      -0.057400
     22 C27         43.8810   -37.9130    24.2950 c6         1 VAQ       0.226800
     23 C30         41.7990   -38.2010    25.6980 ca         1 VAQ       0.425900
     24 C32         40.1480   -38.7500    27.1890 ca         1 VAQ       0.191900
     25 C34         39.9410   -39.5650    25.0700 ca         1 VAQ       0.396900
     26 C36         39.6440   -40.8670    22.8900 c3         1 VAQ       0.280100
     27 C37         40.8050   -41.8420    23.0810 ca         1 VAQ      -0.111300
     28 C38         40.6250   -43.0320    23.8170 ca         1 VAQ      -0.099500
     29 C39         41.6940   -43.9270    23.9940 ca         1 VAQ      -0.109500
     30 C40         42.9510   -43.6420    23.4360 ca         1 VAQ      -0.107000
     31 C41         43.1380   -42.4610    22.6990 ca         1 VAQ      -0.109500
     32 C42         42.0690   -41.5650    22.5200 ca         1 VAQ      -0.099500
     33 C43         41.1270   -38.9260    24.7070 ca         1 VAQ      -0.360000
     34 N04         44.5690   -33.3670    25.9480 ns         1 VAQ      -0.516900
     35 N11         43.0380   -27.4300    21.9860 nq         1 VAQ      -0.704600
     36 N29         43.0190   -37.5370    25.4520 nh         1 VAQ      -0.782300
     37 N31         41.3070   -38.1090    26.9470 nb         1 VAQ      -0.312000
     38 N33         39.4370   -39.4790    26.3080 nb         1 VAQ      -0.292000
     39 N35         39.1950   -40.3120    24.1780 nu         1 VAQ      -0.938100
     40 O01         44.9620   -36.8160    27.4090 oh         1 VAQ      -0.652000
     41 O24         46.6390   -33.0140    25.1220 o          1 VAQ      -0.582100
     42 H1          42.7660   -29.0500    20.6890 h1         1 VAQ       0.043700
     43 H2          44.3890   -28.3380    20.6680 h1         1 VAQ       0.043700
     44 H3          40.4480   -26.8260    21.5070 hc         1 VAQ       0.089700
     45 H4          39.7050   -26.9830    19.1600 hc         1 VAQ       0.070700
     46 H5          41.3090   -26.3120    18.5820 hc         1 VAQ       0.070700
     47 H6          40.7460   -25.6880    23.4200 hc         1 VAQ       0.052450
     48 H7          42.0460   -25.5250    24.6300 hc         1 VAQ       0.052450
     49 H8          43.9040   -26.8880    23.9830 h1         1 VAQ       0.050700
     50 H9          44.9010   -26.3620    22.5670 h1         1 VAQ       0.050700
     51 H10         42.0470   -30.1040    23.0380 ha         1 VAQ       0.140000
     52 H11         45.7250   -38.3960    25.3420 hc         1 VAQ       0.058200
     53 H12         45.9760   -37.8250    23.7020 hc         1 VAQ       0.058200
     54 H13         42.9740   -35.4320    25.0630 h1         1 VAQ       0.063200
     55 H14         42.5420   -35.8560    26.7220 h1         1 VAQ       0.063200
     56 H15         45.9530   -34.3350    27.2110 h1         1 VAQ       0.065700
     57 H16         44.2820   -34.3120    27.7910 h1         1 VAQ       0.065700
     58 H17         46.8750   -31.2310    23.3780 ha         1 VAQ       0.131000
     59 H18         46.1200   -29.5150    21.7940 ha         1 VAQ       0.119000
     60 H19         43.1460   -25.9130    20.3760 h1         1 VAQ       0.033700
     61 H20         40.9040   -24.1980    19.8950 hc         1 VAQ       0.070700
     62 H21         39.2980   -24.8610    20.4770 hc         1 VAQ       0.070700
     63 H22         42.0850   -23.0650    24.0080 hc         1 VAQ       0.048700
     64 H23         41.2340   -23.3780    22.4940 hc         1 VAQ       0.048700
     65 H24         44.2820   -23.9080    23.0330 hc         1 VAQ       0.052450
     66 H25         43.5080   -23.7040    21.4270 hc         1 VAQ       0.052450
     67 H26         46.6780   -36.1080    25.4430 hc         1 VAQ       0.057200
     68 H27         45.4550   -35.5040    24.3320 hc         1 VAQ       0.057200
     69 H28         43.5890   -37.3340    23.4060 h1         1 VAQ       0.048700
     70 H29         43.7620   -38.9790    24.0490 h1         1 VAQ       0.048700
     71 H30         39.7480   -38.6750    28.1990 h5         1 VAQ       0.038100
     72 H31         39.9470   -40.0540    22.2160 h1         1 VAQ       0.051200
     73 H32         38.8140   -41.3980    22.4030 h1         1 VAQ       0.051200
     74 H33         39.6550   -43.2600    24.2540 ha         1 VAQ       0.116500
     75 H34         41.5470   -44.8420    24.5650 ha         1 VAQ       0.114500
     76 H35         43.7780   -44.3350    23.5740 ha         1 VAQ       0.114000
     77 H36         44.1110   -42.2400    22.2650 ha         1 VAQ       0.114500
     78 H37         42.2260   -40.6550    21.9450 ha         1 VAQ       0.116500
     79 H38         41.5040   -38.9820    23.6950 ha         1 VAQ       0.133000
     80 H39         43.6040   -33.0620    25.8720 hn         1 VAQ       0.314500
     81 H41         38.3480   -40.7170    24.5780 hn         1 VAQ       0.505000
     82 H42         44.4050   -37.5940    27.1720 ho         1 VAQ       0.448000
     83 H43         41.6760   -31.5690    24.5540 ho         1 VAQ       0.473000
     84 O23         42.5470   -31.9570    24.7890 oh         1 VAQ      -0.544100
     85 C05         45.4480   -32.7350    25.1030 c          1 VAQ       0.604700
@<TRIPOS>BOND
     1     1    15 1   
     2     1    35 1   
     3     1    42 1   
     4     1    43 1   
     5     2     3 1   
     6     2    16 1   
     7     2    17 1   
     8     2    44 1   
     9     3    17 1   
    10     3    45 1   
    11     3    46 1   
    12     4    18 1   
    13     4    19 1   
    14     4    47 1   
    15     4    48 1   
    16     5    18 1   
    17     5    35 1   
    18     5    49 1   
    19     5    50 1   
    20     6     7 ar  
    21     6    15 ar  
    22     6    51 1   
    23     7    12 ar  
    24     7    84 1   
    25     8    21 1   
    26     8    22 1   
    27     8    52 1   
    28     8    53 1   
    29     9    10 1   
    30     9    36 1   
    31     9    54 1   
    32     9    55 1   
    33    10    11 1   
    34    10    21 1   
    35    10    40 1   
    36    11    34 1   
    37    11    56 1   
    38    11    57 1   
    39    12    13 ar  
    40    12    85 1   
    41    13    14 ar  
    42    13    58 1   
    43    14    15 ar  
    44    14    59 1   
    45    16    18 1   
    46    16    35 1   
    47    16    60 1   
    48    17    61 1   
    49    17    62 1   
    50    18    20 1   
    51    19    20 1   
    52    19    63 1   
    53    19    64 1   
    54    20    65 1   
    55    20    66 1   
    56    21    67 1   
    57    21    68 1   
    58    22    36 1   
    59    22    69 1   
    60    22    70 1   
    61    23    33 ar  
    62    23    36 1   
    63    23    37 ar  
    64    24    37 ar  
    65    24    38 ar  
    66    24    71 1   
    67    25    33 ar  
    68    25    38 ar  
    69    25    39 1   
    70    26    27 1   
    71    26    39 1   
    72    26    72 1   
    73    26    73 1   
    74    27    28 ar  
    75    27    32 ar  
    76    28    29 ar  
    77    28    74 1   
    78    29    30 ar  
    79    29    75 1   
    80    30    31 ar  
    81    30    76 1   
    82    31    32 ar  
    83    31    77 1   
    84    32    78 1   
    85    33    79 1   
    86    34    80 1   
    87    34    85 1   
    88    39    81 1   
    89    40    82 1   
    90    41    85 2   
    91    83    84 1   
@<TRIPOS>SUBSTRUCTURE
     1 VAQ         1 TEMP              0 ****  ****    0 ROOT
