@<TRIPOS>MOLECULE
VAR
   33    36     1     0     0
SMALL
abcg2


@<TRIPOS>ATOM
      1 O1           1.4170     2.6750    -0.1250 oh         1 VAR      -0.572100
      2 C1           0.1360     2.3610    -0.0760 ca         1 VAR       0.254100
      3 C2          -0.8170     3.3810    -0.1100 ca         1 VAR      -0.246000
      4 C3          -2.1700     3.0860    -0.0750 ca         1 VAR       0.389900
      5 N1          -2.6540     1.8500    -0.0190 nb         1 VAR      -0.750000
      6 C4          -1.7380     0.8990     0.0120 ca         1 VAR       0.383500
      7 N2          -2.0260    -0.4590     0.0650 na         1 VAR      -0.220000
      8 C5          -3.2580    -1.0760     0.0630 cc         1 VAR       0.838400
      9 N3          -4.3400    -0.3080     0.0490 nv         1 VAR      -1.079900
     10 N4          -3.3610    -2.3810     0.0730 nd         1 VAR      -0.815000
     11 C6          -2.2260    -3.1040     0.0640 cd         1 VAR       0.421900
     12 C7          -0.9650    -2.5840     0.0800 cc         1 VAR      -0.258000
     13 C8          -0.8340    -1.1800     0.1010 cc         1 VAR       0.057000
     14 C9           0.2340    -0.2830     0.0950 cd         1 VAR      -0.273000
     15 C10         -0.3460     1.0380     0.0040 ca         1 VAR      -0.154800
     16 C11          1.6350    -0.6240     0.1730 ca         1 VAR       0.310800
     17 C14          2.1140    -1.8610     0.6150 ca         1 VAR      -0.293000
     18 C13          3.4820    -2.0430     0.6130 ca         1 VAR       0.163900
     19 N7           4.3540    -1.1270     0.2220 nb         1 VAR      -0.254000
     20 C12          3.8270     0.0420    -0.1510 ca         1 VAR       0.410900
     21 N5           2.5190     0.3220    -0.1810 nb         1 VAR      -0.333000
     22 N6           4.6780     0.9990    -0.5540 nv         1 VAR      -1.069900
     23 HO1          1.9540     1.8210    -0.1970 ho         1 VAR       0.538000
     24 H2          -0.4930     4.4120    -0.1700 ha         1 VAR       0.137000
     25 H3          -2.8970     3.8870    -0.1010 h4         1 VAR       0.020100
     26 HN3         -4.2580     0.7010     0.0320 hn         1 VAR       0.533500
     27 HN3A        -5.2420    -0.7510     0.0330 hn         1 VAR       0.533500
     28 H6          -2.3600    -4.1790     0.0400 h4         1 VAR       0.023100
     29 H7          -0.1130    -3.2390     0.0410 ha         1 VAR       0.141000
     30 H14          1.4750    -2.6390     0.9960 ha         1 VAR       0.138000
     31 H13          3.8970    -2.9860     0.9550 h4         1 VAR       0.020100
     32 HN6          5.6620     0.8710    -0.3970 hn         1 VAR       0.501500
     33 HN6A         4.3560     1.9380    -0.7120 hn         1 VAR       0.501500
@<TRIPOS>BOND
     1     1     2 1   
     2     1    23 1   
     3     2     3 ar  
     4     2    15 ar  
     5     3     4 ar  
     6     3    24 1   
     7     4     5 ar  
     8     4    25 1   
     9     5     6 ar  
    10     6     7 1   
    11     6    15 ar  
    12     7     8 1   
    13     7    13 1   
    14     8     9 1   
    15     8    10 2   
    16     9    26 1   
    17     9    27 1   
    18    10    11 1   
    19    11    12 2   
    20    11    28 1   
    21    12    13 1   
    22    12    29 1   
    23    13    14 2   
    24    14    15 1   
    25    14    16 1   
    26    16    17 ar  
    27    16    21 ar  
    28    17    18 ar  
    29    17    30 1   
    30    18    19 ar  
    31    18    31 1   
    32    19    20 ar  
    33    20    21 ar  
    34    20    22 1   
    35    22    32 1   
    36    22    33 1   
@<TRIPOS>SUBSTRUCTURE
     1 VAR         1 TEMP              0 ****  ****    0 ROOT
