@<TRIPOS>MOLECULE
VAR
   33    36     1     0     0
SMALL
No Charge or Current Charge


@<TRIPOS>ATOM
      1 O1           1.4140     2.6880     0.2970 oh         1 VAR      -0.572100
      2 C1           0.0880     2.4280     0.1880 ca         1 VAR       0.254100
      3 C2          -0.8200     3.4890     0.1350 ca         1 VAR      -0.246000
      4 C3          -2.1930     3.2160     0.0290 ca         1 VAR       0.389900
      5 N1          -2.6950     1.9580    -0.0090 nb         1 VAR      -0.750000
      6 C4          -1.8070     0.9420     0.0580 ca         1 VAR       0.383500
      7 N2          -1.9990    -0.4190     0.0630 na         1 VAR      -0.220000
      8 C5          -3.1960    -1.1030     0.0030 cc         1 VAR       0.838400
      9 N3          -4.3470    -0.4510     0.0040 nv         1 VAR      -1.079900
     10 N4          -3.2980    -2.4200    -0.0920 nd         1 VAR      -0.815000
     11 C6          -2.1130    -3.1800    -0.0860 cd         1 VAR       0.421900
     12 C7          -0.8900    -2.5510     0.0220 cc         1 VAR      -0.258000
     13 C8          -0.8500    -1.1480     0.1150 cc         1 VAR       0.057000
     14 C9           0.1840    -0.2260     0.1820 cd         1 VAR      -0.273000
     15 C10         -0.4310     1.1220     0.1330 ca         1 VAR      -0.154800
     16 C11          1.6260    -0.5440     0.2620 ca         1 VAR       0.310800
     17 C14          2.0970    -1.6740     0.9540 ca         1 VAR      -0.293000
     18 C13          3.4740    -1.9450     0.9210 ca         1 VAR       0.163900
     19 N7           4.3240    -1.1600     0.2350 nb         1 VAR      -0.254000
     20 C12          3.7720    -0.1190    -0.4010 ca         1 VAR       0.410900
     21 N5           2.4820     0.2360    -0.4290 nb         1 VAR      -0.333000
     22 N6           4.6140     0.6760    -1.0970 nv         1 VAR      -1.069900
     23 HO1          1.8780     1.8340     0.1290 ho         1 VAR       0.538000
     24 H2          -0.4730     4.5170     0.1710 ha         1 VAR       0.137000
     25 H3          -2.9170     4.0290    -0.0200 h4         1 VAR       0.020100
     26 HN3         -4.2300     0.5440    -0.1750 hn         1 VAR       0.533500
     27 HN3A        -5.0820    -0.9200    -0.5060 hn         1 VAR       0.533500
     28 H6          -2.2150    -4.2550    -0.1710 h4         1 VAR       0.023100
     29 H7           0.0210    -3.1350     0.0030 ha         1 VAR       0.141000
     30 H14          1.4290    -2.3050     1.5310 ha         1 VAR       0.138000
     31 H13          3.9010    -2.7960     1.4500 h4         1 VAR       0.020100
     32 HN6          5.6180     0.5700    -0.9650 hn         1 VAR       0.501500
     33 HN6A         4.2800     1.5580    -1.4770 hn         1 VAR       0.501500
@<TRIPOS>BOND
     1     1     2 1   
     2     1    23 1   
     3     2     3 ar  
     4     2    15 ar  
     5     3     4 ar  
     6     3    24 1   
     7     4     5 ar  
     8     4    25 1   
     9     5     6 ar  
    10     6     7 1   
    11     6    15 ar  
    12     7     8 1   
    13     7    13 1   
    14     8     9 1   
    15     8    10 2   
    16     9    26 1   
    17     9    27 1   
    18    10    11 1   
    19    11    12 2   
    20    11    28 1   
    21    12    13 1   
    22    12    29 1   
    23    13    14 2   
    24    14    15 1   
    25    14    16 1   
    26    16    17 ar  
    27    16    21 ar  
    28    17    18 ar  
    29    17    30 1   
    30    18    19 ar  
    31    18    31 1   
    32    19    20 ar  
    33    20    21 ar  
    34    20    22 1   
    35    22    32 1   
    36    22    33 1   
@<TRIPOS>SUBSTRUCTURE
     1 VAR         1 TEMP              0 ****  ****    0 ROOT
