@<TRIPOS>MOLECULE
VAT
   80    85     1     0     0
SMALL
No Charge or Current Charge


@<TRIPOS>ATOM
      1 C10        -43.1360    28.7650    21.1140 c3         1 VAT       0.209100
      2 C13        -42.3820    26.3110    20.9070 cy         1 VAT       0.153800
      3 C15        -43.2860    24.0040    21.9850 c5         1 VAT      -0.062400
      4 C17        -42.5490    24.3490    24.3040 c5         1 VAT      -0.079400
      5 C20        -45.5150    30.9780    23.1610 ca         1 VAT      -0.075500
      6 C22        -45.4910    36.1580    25.1480 c6         1 VAT      -0.062400
      7 C24        -43.8850    37.9690    24.2670 c6         1 VAT       0.206800
      8 C02        -44.4760    35.8410    26.2870 c6         1 VAT       0.138000
      9 C03        -44.5890    34.3660    26.7980 c3         1 VAT       0.077000
     10 C06        -44.6260    31.6860    24.0010 ca         1 VAT      -0.155600
     11 C07        -43.2380    31.4240    23.8820 ca         1 VAT      -0.075500
     12 C08        -42.7650    30.4830    22.9510 ca         1 VAT      -0.111500
     13 C09        -43.6580    29.7850    22.1200 ca         1 VAT      -0.058300
     14 C12        -43.8230    26.6200    22.3750 cy         1 VAT       0.153800
     15 C14        -42.7820    25.4560    22.1650 cy         1 VAT      -0.087000
     16 C16        -43.6190    23.6030    23.4480 c5         1 VAT      -0.079400
     17 C18        -41.7270    25.1720    23.2710 c5         1 VAT      -0.062400
     18 C19        -45.0370    30.0380    22.2320 ca         1 VAT      -0.111500
     19 C23        -45.3470    37.6230    24.6480 c6         1 VAT      -0.105400
     20 C25        -43.0420    36.1610    25.7640 c6         1 VAT       0.178800
     21 C27        -41.7530    38.3250    25.5810 ca         1 VAT       0.407900
     22 C29        -40.0630    38.9160    27.0130 ca         1 VAT       0.191900
     23 C31        -40.0050    39.8150    24.9190 ca         1 VAT       0.403900
     24 C33        -39.8900    41.2140    22.7820 c3         1 VAT       0.284100
     25 C34        -41.0910    42.1130    23.0730 ca         1 VAT      -0.115300
     26 C35        -42.3660    41.7870    22.5670 ca         1 VAT      -0.098000
     27 C36        -43.4710    42.6120    22.8370 ca         1 VAT      -0.109000
     28 C37        -43.3100    43.7730    23.6120 ca         1 VAT      -0.104000
     29 C38        -42.0420    44.1090    24.1150 ca         1 VAT      -0.109000
     30 C39        -40.9360    43.2830    23.8460 ca         1 VAT      -0.098000
     31 C40        -41.1710    39.1230    24.5880 ca         1 VAT      -0.351000
     32 N04        -44.2610    33.3350    25.7970 ns         1 VAT      -0.505900
     33 N11        -42.7920    27.4810    21.7310 nq         1 VAT      -0.717600
     34 N26        -42.9460    37.6030    25.3660 nh         1 VAT      -0.751300
     35 N28        -41.1950    38.2180    26.8010 nb         1 VAT      -0.308000
     36 N30        -39.4370    39.7140    26.1270 nb         1 VAT      -0.291000
     37 N32        -39.3460    40.6350    24.0220 nu         1 VAT      -0.940100
     38 O01        -44.7380    36.7170    27.3910 oh         1 VAT      -0.653000
     39 O21        -46.3750    32.9320    25.0750 o          1 VAT      -0.599100
     40 H1         -43.8940    28.5960    20.3360 h1         1 VAT       0.041200
     41 H2         -42.2420    29.1700    20.6210 h1         1 VAT       0.041200
     42 H3         -41.3210    26.2620    20.6320 h1         1 VAT       0.048950
     43 H4         -43.0090    26.1200    20.0260 h1         1 VAT       0.048950
     44 H5         -44.1640    23.9330    21.3330 hc         1 VAT       0.047200
     45 H6         -42.5200    23.3480    21.5530 hc         1 VAT       0.047200
     46 H7         -43.0310    25.0050    25.0390 hc         1 VAT       0.042450
     47 H8         -41.9110    23.6570    24.8660 hc         1 VAT       0.042450
     48 H9         -46.5870    31.1530    23.2250 ha         1 VAT       0.121500
     49 H10        -45.3270    35.4790    24.3010 hc         1 VAT       0.058700
     50 H11        -46.5190    35.9800    25.4940 hc         1 VAT       0.058700
     51 H12        -43.6100    37.4350    23.3450 h1         1 VAT       0.054200
     52 H13        -43.8340    39.0470    24.0520 h1         1 VAT       0.054200
     53 H14        -43.9060    34.2400    27.6490 h1         1 VAT       0.064700
     54 H15        -45.6070    34.1970    27.1710 h1         1 VAT       0.064700
     55 H16        -42.5090    31.9390    24.5020 ha         1 VAT       0.121500
     56 H17        -41.6960    30.2910    22.8760 ha         1 VAT       0.124500
     57 H18        -44.7490    26.4940    21.7980 h1         1 VAT       0.048950
     58 H19        -44.0590    26.8510    23.4200 h1         1 VAT       0.048950
     59 H20        -44.6290    23.9270    23.7240 hc         1 VAT       0.042450
     60 H21        -43.5820    22.5170    23.5910 hc         1 VAT       0.042450
     61 H22        -41.3110    26.0830    23.7180 hc         1 VAT       0.047200
     62 H23        -40.8760    24.5950    22.8900 hc         1 VAT       0.047200
     63 H24        -45.7410    29.5030    21.5990 ha         1 VAT       0.124500
     64 H25        -46.0010    37.7880    23.7810 hc         1 VAT       0.057700
     65 H26        -45.6930    38.3190    25.4240 hc         1 VAT       0.057700
     66 H27        -42.3140    35.9110    26.5500 h1         1 VAT       0.067200
     67 H28        -42.8100    35.5180    24.9020 h1         1 VAT       0.067200
     68 H29        -39.6100    38.8270    27.9990 h5         1 VAT       0.037100
     69 H30        -39.1170    41.8100    22.2770 h1         1 VAT       0.053200
     70 H31        -40.1830    40.4130    22.0900 h1         1 VAT       0.053200
     71 H32        -42.5040    40.8910    21.9640 ha         1 VAT       0.113000
     72 H33        -44.4520    42.3520    22.4460 ha         1 VAT       0.114500
     73 H34        -44.1650    44.4120    23.8210 ha         1 VAT       0.115000
     74 H35        -41.9150    45.0080    24.7140 ha         1 VAT       0.114500
     75 H36        -39.9580    43.5490    24.2410 ha         1 VAT       0.113000
     76 H37        -41.5990    39.1940    23.5970 ha         1 VAT       0.134000
     77 H38        -43.2940    33.0590    25.6900 hn         1 VAT       0.312500
     78 H40        -38.5050    41.0740    24.3980 hn         1 VAT       0.507000
     79 H41        -44.2440    37.5340    27.1470 ho         1 VAT       0.454000
     80 C05        -45.1780    32.6930    24.9900 c          1 VAT       0.615700
@<TRIPOS>BOND
     1     1    13 1   
     2     1    33 1   
     3     1    40 1   
     4     1    41 1   
     5     2    15 1   
     6     2    33 1   
     7     2    42 1   
     8     2    43 1   
     9     3    15 1   
    10     3    16 1   
    11     3    44 1   
    12     3    45 1   
    13     4    16 1   
    14     4    17 1   
    15     4    46 1   
    16     4    47 1   
    17     5    10 ar  
    18     5    18 ar  
    19     5    48 1   
    20     6     8 1   
    21     6    19 1   
    22     6    49 1   
    23     6    50 1   
    24     7    19 1   
    25     7    34 1   
    26     7    51 1   
    27     7    52 1   
    28     8     9 1   
    29     8    20 1   
    30     8    38 1   
    31     9    32 1   
    32     9    53 1   
    33     9    54 1   
    34    10    11 ar  
    35    10    80 1   
    36    11    12 ar  
    37    11    55 1   
    38    12    13 ar  
    39    12    56 1   
    40    13    18 ar  
    41    14    15 1   
    42    14    33 1   
    43    14    57 1   
    44    14    58 1   
    45    15    17 1   
    46    16    59 1   
    47    16    60 1   
    48    17    61 1   
    49    17    62 1   
    50    18    63 1   
    51    19    64 1   
    52    19    65 1   
    53    20    34 1   
    54    20    66 1   
    55    20    67 1   
    56    21    31 ar  
    57    21    34 1   
    58    21    35 ar  
    59    22    35 ar  
    60    22    36 ar  
    61    22    68 1   
    62    23    31 ar  
    63    23    36 ar  
    64    23    37 1   
    65    24    25 1   
    66    24    37 1   
    67    24    69 1   
    68    24    70 1   
    69    25    26 ar  
    70    25    30 ar  
    71    26    27 ar  
    72    26    71 1   
    73    27    28 ar  
    74    27    72 1   
    75    28    29 ar  
    76    28    73 1   
    77    29    30 ar  
    78    29    74 1   
    79    30    75 1   
    80    31    76 1   
    81    32    77 1   
    82    32    80 1   
    83    37    78 1   
    84    38    79 1   
    85    39    80 2   
@<TRIPOS>SUBSTRUCTURE
     1 VAT         1 TEMP              0 ****  ****    0 ROOT
