@<TRIPOS>MOLECULE
VAT
   80    85     1     0     0
SMALL
bcc


@<TRIPOS>ATOM
      1 C10        -43.9540    28.5020    21.3950 c3         1 VAT       0.209100
      2 C13        -42.9490    26.2370    21.2430 cy         1 VAT       0.153800
      3 C15        -44.0010    24.0530    22.3270 c5         1 VAT      -0.062400
      4 C17        -42.6180    24.0360    24.3540 c5         1 VAT      -0.079400
      5 C20        -45.4840    31.6400    22.8770 ca         1 VAT      -0.093500
      6 C22        -44.3210    36.5920    24.4440 c6         1 VAT      -0.062400
      7 C24        -42.3450    37.5490    23.2580 c6         1 VAT       0.206800
      8 C02        -43.4010    36.1620    25.5860 c6         1 VAT       0.114800
      9 C03        -43.8700    34.8450    26.2340 c3         1 VAT       0.077000
     10 C06        -44.6200    31.9310    23.9310 ca         1 VAT      -0.155600
     11 C07        -43.5600    31.0620    24.1810 ca         1 VAT      -0.093500
     12 C08        -43.3530    29.9480    23.3820 ca         1 VAT      -0.129500
     13 C09        -44.1970    29.6730    22.3100 ca         1 VAT      -0.058300
     14 C12        -43.9850    26.6040    23.0110 cy         1 VAT       0.153800
     15 C14        -43.2340    25.3670    22.4760 cy         1 VAT      -0.087000
     16 C16        -43.5940    23.1780    23.5350 c5         1 VAT      -0.079400
     17 C18        -42.0240    24.9910    23.3250 c5         1 VAT      -0.062400
     18 C19        -45.2710    30.5300    22.0780 ca         1 VAT      -0.129500
     19 C23        -43.7840    37.8050    23.6850 c6         1 VAT      -0.105400
     20 C25        -41.9600    36.0230    25.0680 c6         1 VAT       0.178800
     21 C27        -40.9080    38.2250    25.1300 ca         1 VAT       0.736200
     22 C29        -39.7720    38.8380    26.9950 ca         1 VAT       0.717900
     23 C31        -40.1000    40.4470    25.4550 ca         1 VAT       0.732200
     24 C33        -40.4220    42.3070    23.8680 c3         1 VAT       0.284100
     25 C34        -41.9310    42.3520    23.7590 ca         1 VAT      -0.115300
     26 C35        -42.5510    42.0650    22.5470 ca         1 VAT      -0.116000
     27 C36        -43.9340    42.1080    22.4290 ca         1 VAT      -0.127000
     28 C37        -44.7160    42.4380    23.5270 ca         1 VAT      -0.122000
     29 C38        -44.1040    42.7270    24.7410 ca         1 VAT      -0.127000
     30 C39        -42.7220    42.6850    24.8550 ca         1 VAT      -0.116000
     31 C40        -40.7650    39.5280    24.6440 ca         1 VAT      -0.499600
     32 N04        -43.8240    33.6910    25.3690 ns         1 VAT      -0.572900
     33 N11        -43.2580    27.4260    22.0410 nq         1 VAT      -0.717600
     34 N26        -41.5240    37.2440    24.4180 nh         1 VAT      -0.751300
     35 N28        -40.3960    37.8870    26.3290 nb         1 VAT      -0.834000
     36 N30        -39.5900    40.0960    26.6510 nb         1 VAT      -0.817000
     37 N32        -39.9330    41.7360    25.0950 nu         1 VAT      -0.884900
     38 O01        -43.4700    37.1780    26.5670 oh         1 VAT      -0.590800
     39 O21        -46.0210    33.6180    24.8350 o          1 VAT      -0.599100
     40 H1         -44.9160    28.1760    20.9640 h1         1 VAT       0.041200
     41 H2         -43.3460    28.8410    20.5490 h1         1 VAT       0.041200
     42 H3         -41.9420    26.2060    20.8160 h1         1 VAT       0.048950
     43 H4         -43.6790    26.0570    20.4410 h1         1 VAT       0.048950
     44 H5         -45.0780    24.2230    22.2760 hc         1 VAT       0.047200
     45 H6         -43.7180    23.5690    21.3900 hc         1 VAT       0.047200
     46 H7         -43.1580    24.6070    25.1140 hc         1 VAT       0.042450
     47 H8         -41.8660    23.4410    24.8760 hc         1 VAT       0.042450
     48 H9         -46.3250    32.2910    22.6760 ha         1 VAT       0.139500
     49 H10        -44.4210    35.7630    23.7380 hc         1 VAT       0.058700
     50 H11        -45.3210    36.7930    24.8370 hc         1 VAT       0.058700
     51 H12        -42.3070    36.6800    22.5960 h1         1 VAT       0.054200
     52 H13        -41.9320    38.3790    22.6910 h1         1 VAT       0.054200
     53 H14        -43.2360    34.6400    27.1020 h1         1 VAT       0.064700
     54 H15        -44.8890    34.9730    26.6010 h1         1 VAT       0.064700
     55 H16        -42.8900    31.2220    25.0170 ha         1 VAT       0.139500
     56 H17        -42.5270    29.2820    23.5960 ha         1 VAT       0.142500
     57 H18        -45.0640    26.5510    22.8030 h1         1 VAT       0.048950
     58 H19        -43.8440    26.8780    24.0610 h1         1 VAT       0.048950
     59 H20        -44.4540    22.8610    24.1260 hc         1 VAT       0.042450
     60 H21        -43.0980    22.2680    23.1930 hc         1 VAT       0.042450
     61 H22        -41.5230    25.8570    23.7660 hc         1 VAT       0.047200
     62 H23        -41.2880    24.4690    22.7030 hc         1 VAT       0.047200
     63 H24        -45.9520    30.3260    21.2600 ha         1 VAT       0.142500
     64 H25        -44.4010    37.9930    22.8030 hc         1 VAT       0.057700
     65 H26        -43.8300    38.7070    24.3010 hc         1 VAT       0.057700
     66 H27        -41.2810    35.7690    25.8810 h1         1 VAT       0.067200
     67 H28        -41.9000    35.2160    24.3330 h1         1 VAT       0.067200
     68 H29        -39.3590    38.5460    27.9570 h5         1 VAT       0.037100
     69 H30        -40.0210    43.3200    23.8110 h1         1 VAT       0.053200
     70 H31        -40.0150    41.7700    23.0050 h1         1 VAT       0.053200
     71 H32        -41.9480    41.7940    21.6880 ha         1 VAT       0.131000
     72 H33        -44.4010    41.8760    21.4800 ha         1 VAT       0.132500
     73 H34        -45.7940    42.4660    23.4400 ha         1 VAT       0.133000
     74 H35        -44.7060    42.9840    25.6030 ha         1 VAT       0.132500
     75 H36        -42.2570    42.9040    25.8090 ha         1 VAT       0.131000
     76 H37        -41.1770    39.8310    23.6970 ha         1 VAT       0.152000
     77 H38        -42.9200    33.2760    25.2150 hn         1 VAT       0.312500
     78 H40        -39.4600    42.3290    25.7550 hn         1 VAT       0.451800
     79 H41        -42.7360    37.0680    27.1830 ho         1 VAT       0.415000
     80 C05        -44.8930    33.1500    24.7540 c          1 VAT       0.682700
@<TRIPOS>BOND
     1     1    13 1   
     2     1    33 1   
     3     1    40 1   
     4     1    41 1   
     5     2    15 1   
     6     2    33 1   
     7     2    42 1   
     8     2    43 1   
     9     3    15 1   
    10     3    16 1   
    11     3    44 1   
    12     3    45 1   
    13     4    16 1   
    14     4    17 1   
    15     4    46 1   
    16     4    47 1   
    17     5    10 ar  
    18     5    18 ar  
    19     5    48 1   
    20     6     8 1   
    21     6    19 1   
    22     6    49 1   
    23     6    50 1   
    24     7    19 1   
    25     7    34 1   
    26     7    51 1   
    27     7    52 1   
    28     8     9 1   
    29     8    20 1   
    30     8    38 1   
    31     9    32 1   
    32     9    53 1   
    33     9    54 1   
    34    10    11 ar  
    35    10    80 1   
    36    11    12 ar  
    37    11    55 1   
    38    12    13 ar  
    39    12    56 1   
    40    13    18 ar  
    41    14    15 1   
    42    14    33 1   
    43    14    57 1   
    44    14    58 1   
    45    15    17 1   
    46    16    59 1   
    47    16    60 1   
    48    17    61 1   
    49    17    62 1   
    50    18    63 1   
    51    19    64 1   
    52    19    65 1   
    53    20    34 1   
    54    20    66 1   
    55    20    67 1   
    56    21    31 ar  
    57    21    34 1   
    58    21    35 ar  
    59    22    35 ar  
    60    22    36 ar  
    61    22    68 1   
    62    23    31 ar  
    63    23    36 ar  
    64    23    37 1   
    65    24    25 1   
    66    24    37 1   
    67    24    69 1   
    68    24    70 1   
    69    25    26 ar  
    70    25    30 ar  
    71    26    27 ar  
    72    26    71 1   
    73    27    28 ar  
    74    27    72 1   
    75    28    29 ar  
    76    28    73 1   
    77    29    30 ar  
    78    29    74 1   
    79    30    75 1   
    80    31    76 1   
    81    32    77 1   
    82    32    80 1   
    83    37    78 1   
    84    38    79 1   
    85    39    80 2   
@<TRIPOS>SUBSTRUCTURE
     1 VAT         1 TEMP              0 ****  ****    0 ROOT
