@<TRIPOS>MOLECULE
VAU
   27    27     1     0     0
SMALL
No Charge or Current Charge


@<TRIPOS>ATOM
      1 CAJ         -1.8500     2.4040     0.5290 c3         1 VAU      -0.112100
      2 CAR         -1.1950     1.1370    -0.0990 c6         1 VAU       0.192000
      3 OAG         -1.4650     1.2060    -1.5040 oh         1 VAU      -0.697000
      4 CAL          0.3450     1.1580     0.1870 c6         1 VAU      -0.057400
      5 CAQ          1.1500    -0.1450    -0.1720 c6         1 VAU       0.042000
      6 CAN          2.6200     0.0060     0.4280 c          1 VAU       0.694000
      7 OAC          3.2780     0.9440    -0.0080 o          1 VAU      -0.712500
      8 OAB          3.1810    -1.0020     0.8380 o          1 VAU      -0.712500
      9 OAF          1.2200    -0.3230    -1.6140 oh         1 VAU      -0.695000
     10 CAK          0.4040    -1.3650     0.4650 c6         1 VAU      -0.093400
     11 CAO         -1.0820    -1.4460     0.0380 c6         1 VAU       0.132300
     12 OAD         -1.7020    -2.6130     0.6150 oh         1 VAU      -0.758000
     13 CAP         -1.8450    -0.1640     0.4850 c6         1 VAU       0.144300
     14 OAE         -3.2260    -0.2840     0.0890 oh         1 VAU      -0.690000
     15 H1          -1.3940     3.3230     0.1410 hc         1 VAU       0.032033
     16 H2          -2.9240     2.4560     0.3170 hc         1 VAU       0.032033
     17 H3          -2.3420     0.7640    -1.5860 ho         1 VAU       0.490000
     18 H4           0.7930     2.0210    -0.3250 hc         1 VAU       0.056700
     19 H5           0.4900     1.3540     1.2590 hc         1 VAU       0.056700
     20 H7           1.9140     0.3020    -1.9260 ho         1 VAU       0.473000
     21 H8           0.9140    -2.2960     0.1810 hc         1 VAU       0.049700
     22 H9           0.4650    -1.3030     1.5610 hc         1 VAU       0.049700
     23 H10         -1.1230    -1.5120    -1.0600 h1         1 VAU       0.057700
     24 H11         -1.1850    -3.3930     0.3030 ho         1 VAU       0.498000
     25 H12         -1.7840    -0.1080     1.5830 h1         1 VAU       0.044700
     26 H13         -3.4380    -1.2320     0.2600 ho         1 VAU       0.451000
     27 H14         -1.7310     2.4130     1.6200 hc         1 VAU       0.032033
@<TRIPOS>BOND
     1     1     2 1   
     2     1    15 1   
     3     1    16 1   
     4     1    27 1   
     5     2     3 1   
     6     2     4 1   
     7     2    13 1   
     8     3    17 1   
     9     4     5 1   
    10     4    18 1   
    11     4    19 1   
    12     5     6 1   
    13     5     9 1   
    14     5    10 1   
    15     6     7 1   
    16     6     8 1   
    17     9    20 1   
    18    10    11 1   
    19    10    21 1   
    20    10    22 1   
    21    11    12 1   
    22    11    13 1   
    23    11    23 1   
    24    12    24 1   
    25    13    14 1   
    26    13    25 1   
    27    14    26 1   
@<TRIPOS>SUBSTRUCTURE
     1 VAU         1 TEMP              0 ****  ****    0 ROOT
