@<TRIPOS>MOLECULE
VAU
   27    27     1     0     0
SMALL
abcg2


@<TRIPOS>ATOM
      1 CAJ         -1.8830     2.2940     0.6370 c3         1 VAU      -0.112100
      2 CAR         -1.2070     1.1020    -0.0440 c6         1 VAU       0.192000
      3 OAG         -1.4220     1.1630    -1.4420 oh         1 VAU      -0.697000
      4 CAL          0.2980     1.1650     0.2170 c6         1 VAU      -0.057400
      5 CAQ          1.1070    -0.0560    -0.2290 c6         1 VAU       0.042000
      6 CAN          2.5580     0.0560     0.3220 c          1 VAU       0.694000
      7 OAC          3.4520     0.0030    -0.5550 o          1 VAU      -0.712500
      8 OAB          2.7170     0.1760     1.5460 o          1 VAU      -0.712500
      9 OAF          1.1890    -0.1270    -1.6330 oh         1 VAU      -0.695000
     10 CAK          0.4590    -1.3290     0.3280 c6         1 VAU      -0.093400
     11 CAO         -1.0140    -1.4190    -0.0400 c6         1 VAU       0.132300
     12 OAD         -1.6310    -2.5690     0.5190 oh         1 VAU      -0.758000
     13 CAP         -1.7650    -0.2160     0.5140 c6         1 VAU       0.144300
     14 OAE         -3.1390    -0.2760     0.1990 oh         1 VAU      -0.690000
     15 H1          -1.4540     3.2290     0.2730 hc         1 VAU       0.032033
     16 H2          -2.9570     2.3190     0.4410 hc         1 VAU       0.032033
     17 H3          -2.3640     1.0190    -1.5920 ho         1 VAU       0.490000
     18 H4           0.6990     2.0670    -0.2570 hc         1 VAU       0.056700
     19 H5           0.4410     1.2950     1.2930 hc         1 VAU       0.056700
     20 H7           2.1570    -0.1520    -1.7680 ho         1 VAU       0.473000
     21 H8           0.9910    -2.2060    -0.0540 hc         1 VAU       0.049700
     22 H9           0.5580    -1.3450     1.4170 hc         1 VAU       0.049700
     23 H10         -1.1190    -1.4300    -1.1310 h1         1 VAU       0.057700
     24 H11         -1.3870    -3.3320    -0.0130 ho         1 VAU       0.498000
     25 H12         -1.6200    -0.2050     1.6080 h1         1 VAU       0.044700
     26 H13         -3.4290    -1.1860     0.3290 ho         1 VAU       0.451000
     27 H14         -1.7470     2.2630     1.7190 hc         1 VAU       0.032033
@<TRIPOS>BOND
     1     1     2 1   
     2     1    15 1   
     3     1    16 1   
     4     1    27 1   
     5     2     3 1   
     6     2     4 1   
     7     2    13 1   
     8     3    17 1   
     9     4     5 1   
    10     4    18 1   
    11     4    19 1   
    12     5     6 1   
    13     5     9 1   
    14     5    10 1   
    15     6     7 1   
    16     6     8 1   
    17     9    20 1   
    18    10    11 1   
    19    10    21 1   
    20    10    22 1   
    21    11    12 1   
    22    11    13 1   
    23    11    23 1   
    24    12    24 1   
    25    13    14 1   
    26    13    25 1   
    27    14    26 1   
@<TRIPOS>SUBSTRUCTURE
     1 VAU         1 TEMP              0 ****  ****    0 ROOT
