@<TRIPOS>MOLECULE
VAW
   74    77     1     0     0
SMALL
abcg2


@<TRIPOS>ATOM
      1 CBD         -7.1780    -1.2170     0.2760 ca         1 VAW      -0.095800
      2 CAM         -7.0680    -0.8940     1.6340 ca         1 VAW      -0.059000
      3 CAK         -7.7610    -1.6490     2.5600 ca         1 VAW      -0.143000
      4 CAJ         -8.5680    -2.7270     2.1570 ca         1 VAW      -0.091000
      5 CAL         -8.7000    -3.0670     0.8250 ca         1 VAW      -0.131000
      6 CBC         -7.9990    -2.3020    -0.1070 ca         1 VAW      -0.047200
      7 NAU         -7.9380    -2.3960    -1.4660 na         1 VAW      -0.224700
      8 CAN         -7.1150    -1.4160    -1.9500 cc         1 VAW      -0.159100
      9 CBB         -6.6210    -0.6620    -0.9230 cd         1 VAW      -0.138400
     10 CAR         -5.6530     0.4710    -1.0160 c3         1 VAW      -0.003200
     11 CAP         -4.2360     0.0520    -0.6330 c3         1 VAW       0.156800
     12 NAT         -3.3190     1.1720    -0.6920 n7         1 VAW      -0.859400
     13 CAQ         -1.9470     0.7830    -0.4210 c3         1 VAW       0.158800
     14 CAS         -1.0210     1.9880    -0.4890 c3         1 VAW      -0.072400
     15 CBJ          0.4540     1.6190    -0.2780 c6         1 VAW       0.024500
     16 CBH          0.9630     0.7290    -1.4380 c6         1 VAW      -0.054500
     17 CAH          0.5320     1.2120    -2.7940 c2         1 VAW      -0.216200
     18 CAA         -0.0840     0.4470    -3.6850 c2         1 VAW      -0.310000
     19 CBA          1.3520     2.8280    -0.1610 ce         1 VAW      -0.285400
     20 CAZ          1.0710     3.9540     0.7500 c          1 VAW       0.614300
     21 OAC          1.5120     5.0740     0.6310 o          1 VAW      -0.503000
     22 OAV          0.3010     3.5870     1.7680 os         1 VAW      -0.438100
     23 CAB         -0.0540     4.5840     2.7240 c3         1 VAW       0.151900
     24 CAI          2.5170     2.9120    -0.8210 c2         1 VAW       0.063100
     25 OAW          3.0480     1.9450    -1.5790 os         1 VAW      -0.356100
     26 CBK          2.4810     0.6550    -1.4020 c6         1 VAW       0.382300
     27 O1           2.8700     0.1430    -0.1680 os         1 VAW      -0.458000
     28 C1           4.1710    -0.3370    -0.0760 c6         1 VAW       0.360300
     29 O5           4.1370    -1.7000    -0.3860 os         1 VAW      -0.464000
     30 C5           5.4170    -2.3030    -0.3740 c6         1 VAW       0.180300
     31 C6           5.2530    -3.7380    -0.8250 c3         1 VAW       0.170600
     32 O6           4.7790    -3.7450    -2.1500 oh         1 VAW      -0.713000
     33 C4           6.0110    -2.2110     1.0330 c6         1 VAW       0.143300
     34 O4           7.3070    -2.7550     0.9970 oh         1 VAW      -0.717000
     35 C3           6.0350    -0.7570     1.4960 c6         1 VAW       0.139300
     36 O3           6.4900    -0.7470     2.8270 oh         1 VAW      -0.665000
     37 C2           4.6550    -0.1300     1.3550 c6         1 VAW       0.111300
     38 O2           4.7620     1.2360     1.6680 oh         1 VAW      -0.721000
     39 HAM         -6.4520    -0.0630     1.9570 ha         1 VAW       0.117000
     40 HAK         -7.6860    -1.4090     3.6130 ha         1 VAW       0.110000
     41 HAJ         -9.0990    -3.3010     2.9050 ha         1 VAW       0.109000
     42 HAL         -9.3230    -3.8970     0.5170 ha         1 VAW       0.111000
     43 HAU         -8.4230    -3.0720    -2.0300 hn         1 VAW       0.349000
     44 HAN         -6.9360    -1.3250    -3.0100 h4         1 VAW       0.210000
     45 HAR1        -5.6460     0.8670    -2.0360 hc         1 VAW       0.048700
     46 HAR2        -5.9680     1.2930    -0.3660 hc         1 VAW       0.048700
     47 HAP1        -4.2360    -0.3410     0.3890 h1         1 VAW       0.032700
     48 HAP2        -3.9270    -0.7850    -1.2810 h1         1 VAW       0.032700
     49 HAT         -3.3560     1.5710    -1.6250 hn         1 VAW       0.401000
     50 HAQ1        -1.9030     0.3550     0.5860 h1         1 VAW       0.028700
     51 HAQ2        -1.6080    -0.0110    -1.1040 h1         1 VAW       0.028700
     52 HAS1        -1.1390     2.4900    -1.4540 hc         1 VAW       0.056200
     53 HAS2        -1.3440     2.7020     0.2680 hc         1 VAW       0.056200
     54 HBJ          0.5210     1.0320     0.6460 hc         1 VAW       0.074700
     55 HBH          0.5930    -0.2900    -1.3000 hc         1 VAW       0.079700
     56 HAH          0.7490     2.2460    -3.0480 ha         1 VAW       0.182000
     57 HBK          2.8720     0.0580    -2.2310 h2         1 VAW       0.098700
     58 HAA1        -0.3690     0.8250    -4.6580 ha         1 VAW       0.164500
     59 HAA2        -0.3310    -0.5880    -3.4740 ha         1 VAW       0.164500
     60 HAI          3.1510     3.7890    -0.7750 h4         1 VAW       0.232000
     61 HAB1         0.8250     4.9890     3.2240 h1         1 VAW       0.047367
     62 HAB2        -0.6120     5.3980     2.2630 h1         1 VAW       0.047367
     63 HAB3        -0.6850     4.0850     3.4540 h1         1 VAW       0.047367
     64 H1           4.8460     0.1930    -0.7700 h2         1 VAW       0.051700
     65 H2           3.9570    -0.6450     2.0320 h1         1 VAW       0.067700
     66 H5           6.0870    -1.7800    -1.0760 h1         1 VAW       0.062700
     67 H6C1         6.2210    -4.2420    -0.7390 h1         1 VAW       0.038200
     68 H6C2         4.5610    -4.2480    -0.1400 h1         1 VAW       0.038200
     69 H4           5.3610    -2.7790     1.7170 h1         1 VAW       0.055700
     70 H6           4.7210    -4.6600    -2.4380 ho         1 VAW       0.505000
     71 HA           7.6660    -2.7320     1.8900 ho         1 VAW       0.526000
     72 H3           6.7300    -0.2060     0.8420 h1         1 VAW       0.054700
     73 HB           6.6500     0.1640     3.0910 ho         1 VAW       0.467000
     74 HC           3.8760     1.5950     1.7790 ho         1 VAW       0.525000
@<TRIPOS>BOND
     1     1     2 ar  
     2     1     6 ar  
     3     1     9 1   
     4     2     3 ar  
     5     2    39 1   
     6     3     4 ar  
     7     3    40 1   
     8     4     5 ar  
     9     4    41 1   
    10     5     6 ar  
    11     5    42 1   
    12     6     7 1   
    13     7     8 1   
    14     7    43 1   
    15     8     9 2   
    16     8    44 1   
    17     9    10 1   
    18    10    11 1   
    19    10    45 1   
    20    10    46 1   
    21    11    12 1   
    22    11    47 1   
    23    11    48 1   
    24    12    13 1   
    25    12    49 1   
    26    13    14 1   
    27    13    50 1   
    28    13    51 1   
    29    14    15 1   
    30    14    52 1   
    31    14    53 1   
    32    15    16 1   
    33    15    19 1   
    34    15    54 1   
    35    16    17 1   
    36    16    26 1   
    37    16    55 1   
    38    17    18 2   
    39    17    56 1   
    40    18    58 1   
    41    18    59 1   
    42    19    20 1   
    43    19    24 2   
    44    20    21 2   
    45    20    22 1   
    46    22    23 1   
    47    23    61 1   
    48    23    62 1   
    49    23    63 1   
    50    24    25 1   
    51    24    60 1   
    52    25    26 1   
    53    26    27 1   
    54    26    57 1   
    55    27    28 1   
    56    28    29 1   
    57    28    37 1   
    58    28    64 1   
    59    29    30 1   
    60    30    31 1   
    61    30    33 1   
    62    30    66 1   
    63    31    32 1   
    64    31    67 1   
    65    31    68 1   
    66    32    70 1   
    67    33    34 1   
    68    33    35 1   
    69    33    69 1   
    70    34    71 1   
    71    35    36 1   
    72    35    37 1   
    73    35    72 1   
    74    36    73 1   
    75    37    38 1   
    76    37    65 1   
    77    38    74 1   
@<TRIPOS>SUBSTRUCTURE
     1 VAW         1 TEMP              0 ****  ****    0 ROOT
