@<TRIPOS>MOLECULE
VAW
   74    77     1     0     0
SMALL
No Charge or Current Charge


@<TRIPOS>ATOM
      1 CBD         -7.4250    -1.0830     0.3610 ca         1 VAW      -0.095800
      2 CAM         -7.0900    -0.8740     1.7060 ca         1 VAW      -0.059000
      3 CAK         -7.7660    -1.6480     2.6760 ca         1 VAW      -0.143000
      4 CAJ         -8.7440    -2.5950     2.2840 ca         1 VAW      -0.091000
      5 CAL         -9.0560    -2.7770     0.9180 ca         1 VAW      -0.131000
      6 CBC         -8.3680    -1.9950    -0.0190 ca         1 VAW      -0.047200
      7 NAU         -8.4860    -1.9800    -1.3970 na         1 VAW      -0.224700
      8 CAN         -7.5960    -1.0310    -1.9470 cc         1 VAW      -0.159100
      9 CBB         -6.9360    -0.4760    -0.8560 cd         1 VAW      -0.138400
     10 CAR         -5.8760     0.5950    -0.9300 c3         1 VAW      -0.003200
     11 CAP         -4.4570     0.0350    -0.6910 c3         1 VAW       0.156800
     12 NAT         -3.4460     1.1090    -0.7690 n7         1 VAW      -0.859400
     13 CAQ         -2.0580     0.6750    -0.5320 c3         1 VAW       0.158800
     14 CAS         -1.0930     1.8790    -0.6170 c3         1 VAW      -0.072400
     15 CBJ          0.4150     1.5370    -0.3160 c6         1 VAW       0.024500
     16 CBH          0.9600     0.4450    -1.3060 c6         1 VAW      -0.054500
     17 CAH          0.5350     0.6850    -2.7580 c2         1 VAW      -0.216200
     18 CAA         -0.0630    -0.2430    -3.5240 c2         1 VAW      -0.310000
     19 CBA          1.3440     2.7900    -0.2990 ce         1 VAW      -0.285400
     20 CAZ          0.9900     4.0090     0.5090 c          1 VAW       0.614300
     21 OAC          1.6180     5.0570     0.4400 o          1 VAW      -0.503000
     22 OAV          0.0710     3.7480     1.4900 os         1 VAW      -0.438100
     23 CAB         -0.2710     4.8070     2.4030 c3         1 VAW       0.151900
     24 CAI          2.5440     2.7660    -0.9320 c2         1 VAW       0.063100
     25 OAW          3.0480     1.6620    -1.5730 os         1 VAW      -0.356100
     26 CBK          2.5030     0.3710    -1.2330 c6         1 VAW       0.382300
     27 O1           2.9250     0.0110     0.0950 os         1 VAW      -0.458000
     28 C1           4.3130    -0.3340     0.1930 c6         1 VAW       0.360300
     29 O5           4.5310    -1.5960    -0.4650 os         1 VAW      -0.464000
     30 C5           5.9260    -2.0060    -0.4960 c6         1 VAW       0.180300
     31 C6           6.0370    -3.3230    -1.3330 c3         1 VAW       0.170600
     32 O6           5.5040    -3.2000    -2.6690 oh         1 VAW      -0.713000
     33 C4           6.4610    -2.1780     0.9640 c6         1 VAW       0.143300
     34 O4           7.8600    -2.5200     0.9980 oh         1 VAW      -0.717000
     35 C3           6.2230    -0.8620     1.7650 c6         1 VAW       0.139300
     36 O3           6.6340    -1.0150     3.1340 oh         1 VAW      -0.665000
     37 C2           4.7240    -0.4580     1.6950 c6         1 VAW       0.111300
     38 O2           4.4840     0.7620     2.4370 oh         1 VAW      -0.721000
     39 HAM         -6.3380    -0.1440     1.9950 ha         1 VAW       0.117000
     40 HAK         -7.5340    -1.5150     3.7300 ha         1 VAW       0.110000
     41 HAJ         -9.2590    -3.1850     3.0390 ha         1 VAW       0.109000
     42 HAL         -9.8050    -3.5010     0.6060 ha         1 VAW       0.111000
     43 HAU         -9.1220    -2.5670    -1.9300 hn         1 VAW       0.349000
     44 HAN         -7.5090    -0.8400    -3.0130 h4         1 VAW       0.210000
     45 HAR1        -5.9080     1.0850    -1.9110 hc         1 VAW       0.048700
     46 HAR2        -6.0850     1.3730    -0.1860 hc         1 VAW       0.048700
     47 HAP1        -4.4260    -0.4440     0.2970 h1         1 VAW       0.032700
     48 HAP2        -4.2510    -0.7390    -1.4430 h1         1 VAW       0.032700
     49 HAT         -3.4930     1.5220    -1.7080 hn         1 VAW       0.401000
     50 HAQ1        -1.9680     0.2180     0.4630 h1         1 VAW       0.028700
     51 HAQ2        -1.7710    -0.0830    -1.2730 h1         1 VAW       0.028700
     52 HAS1        -1.1830     2.3410    -1.6060 hc         1 VAW       0.056200
     53 HAS2        -1.4760     2.6260     0.0820 hc         1 VAW       0.056200
     54 HBJ          0.4320     1.1090     0.6970 hc         1 VAW       0.074700
     55 HBH          0.5740    -0.5320    -0.9880 hc         1 VAW       0.079700
     56 HAH          0.7490     1.6790    -3.1620 ha         1 VAW       0.182000
     57 HBK          2.8590    -0.3830    -1.9530 h2         1 VAW       0.098700
     58 HAA1        -0.3480    -0.0300    -4.5550 ha         1 VAW       0.164500
     59 HAA2        -0.2880    -1.2430    -3.1520 ha         1 VAW       0.164500
     60 HAI          3.2280     3.6190    -0.9360 h4         1 VAW       0.232000
     61 HAB1         0.6120     5.1400     2.9650 h1         1 VAW       0.047367
     62 HAB2        -0.6860     5.6680     1.8640 h1         1 VAW       0.047367
     63 HAB3        -1.0220     4.4620     3.1230 h1         1 VAW       0.047367
     64 H1           4.9220     0.4480    -0.2860 h2         1 VAW       0.051700
     65 H2           4.1280    -1.2760     2.1280 h1         1 VAW       0.067700
     66 H5           6.5120    -1.2280    -1.0080 h1         1 VAW       0.062700
     67 H6C1         7.0960    -3.6120    -1.3790 h1         1 VAW       0.038200
     68 H6C2         5.5080    -4.1170    -0.7880 h1         1 VAW       0.038200
     69 H4           5.8750    -2.9780     1.4430 h1         1 VAW       0.055700
     70 H6           5.5640    -4.0910    -3.0860 ho         1 VAW       0.505000
     71 HA           8.1470    -2.3180     1.9220 ho         1 VAW       0.526000
     72 H3           6.8100    -0.0600     1.2910 h1         1 VAW       0.054700
     73 HB           6.1590    -0.2980     3.6170 ho         1 VAW       0.467000
     74 HC           3.5790     1.0630     2.1800 ho         1 VAW       0.525000
@<TRIPOS>BOND
     1     1     2 ar  
     2     1     6 ar  
     3     1     9 1   
     4     2     3 ar  
     5     2    39 1   
     6     3     4 ar  
     7     3    40 1   
     8     4     5 ar  
     9     4    41 1   
    10     5     6 ar  
    11     5    42 1   
    12     6     7 1   
    13     7     8 1   
    14     7    43 1   
    15     8     9 2   
    16     8    44 1   
    17     9    10 1   
    18    10    11 1   
    19    10    45 1   
    20    10    46 1   
    21    11    12 1   
    22    11    47 1   
    23    11    48 1   
    24    12    13 1   
    25    12    49 1   
    26    13    14 1   
    27    13    50 1   
    28    13    51 1   
    29    14    15 1   
    30    14    52 1   
    31    14    53 1   
    32    15    16 1   
    33    15    19 1   
    34    15    54 1   
    35    16    17 1   
    36    16    26 1   
    37    16    55 1   
    38    17    18 2   
    39    17    56 1   
    40    18    58 1   
    41    18    59 1   
    42    19    20 1   
    43    19    24 2   
    44    20    21 2   
    45    20    22 1   
    46    22    23 1   
    47    23    61 1   
    48    23    62 1   
    49    23    63 1   
    50    24    25 1   
    51    24    60 1   
    52    25    26 1   
    53    26    27 1   
    54    26    57 1   
    55    27    28 1   
    56    28    29 1   
    57    28    37 1   
    58    28    64 1   
    59    29    30 1   
    60    30    31 1   
    61    30    33 1   
    62    30    66 1   
    63    31    32 1   
    64    31    67 1   
    65    31    68 1   
    66    32    70 1   
    67    33    34 1   
    68    33    35 1   
    69    33    69 1   
    70    34    71 1   
    71    35    36 1   
    72    35    37 1   
    73    35    72 1   
    74    36    73 1   
    75    37    38 1   
    76    37    65 1   
    77    38    74 1   
@<TRIPOS>SUBSTRUCTURE
     1 VAW         1 TEMP              0 ****  ****    0 ROOT
