@<TRIPOS>MOLECULE
VAX
  201   211     1     0     0
SMALL
No Charge or Current Charge


@<TRIPOS>ATOM
      1 C1           5.4770    10.1290    -0.1170 c3         1 VAX       0.076900
      2 N2           5.3800     9.0430    -1.2020 ny         1 VAX      -0.810000
      3 C3           4.1290     8.1390    -1.1760 c3         1 VAX       0.005300
      4 C6           4.2740     6.9790    -2.1930 c3         1 VAX      -0.105400
      5 C7           5.4220     5.9780    -1.8820 c3         1 VAX      -0.061700
      6 C8           5.2330     5.2720    -0.5190 c3         1 VAX      -0.101600
      7 C9           5.5810     4.9470    -3.0220 c3         1 VAX      -0.101600
      8 C4           2.8170     8.9410    -1.4180 c          1 VAX       0.576100
      9 O5           2.6140     9.5820    -2.4370 o          1 VAX      -0.560100
     10 N10          1.8930     8.8810    -0.3950 ns         1 VAX      -0.491900
     11 C11          0.5940     9.6290    -0.3800 c3         1 VAX      -0.027300
     12 C14          0.1170    10.0110     1.0510 c3         1 VAX       0.219600
     13 O15          1.0650    10.9080     1.6460 oh         1 VAX      -0.617000
     14 C16         -0.0800     8.7710     1.9270 ca         1 VAX      -0.118300
     15 C17         -1.3800     8.2450     2.0990 ca         1 VAX      -0.060000
     16 C19         -1.5720     7.0150     2.7490 ca         1 VAX       0.105000
     17 Cl2         -3.1930     6.3280     2.8440 cl         1 VAX      -0.144000
     18 C21         -0.4580     6.2940     3.2180 ca         1 VAX       0.094100
     19 O22         -0.5910     4.9800     3.5980 os         1 VAX      -0.239200
     20 C20          0.8310     6.8420     3.1140 ca         1 VAX      -0.124000
     21 C18          1.0190     8.0830     2.4890 ca         1 VAX      -0.122000
     22 C12         -0.5220     8.8710    -1.1490 c          1 VAX       0.601100
     23 O13         -1.6550     9.3120    -1.2530 o          1 VAX      -0.543100
     24 N24         -0.1590     7.6610    -1.7150 ns         1 VAX      -0.509900
     25 C25         -0.9710     6.9170    -2.7140 c3         1 VAX       0.034700
     26 C28         -0.5000     7.2950    -4.1460 c3         1 VAX      -0.184400
     27 C29         -0.8070     8.7510    -4.4940 c          1 VAX       0.598100
     28 O30         -1.8920     9.1140    -4.9110 o          1 VAX      -0.582100
     29 N31          0.1950     9.6400    -4.3320 nt         1 VAX      -0.610000
     30 C26         -0.9610     5.3710    -2.4850 c          1 VAX       0.590100
     31 O27         -1.5340     4.5980    -3.2390 o          1 VAX      -0.559100
     32 N32         -0.2480     4.9030    -1.4000 ns         1 VAX      -0.492900
     33 C33         -0.0320     3.4650    -1.0930 c3         1 VAX       0.070000
     34 C36          0.1580     3.2290     0.4260 ca         1 VAX      -0.028300
     35 C38         -0.3560     4.1490     1.3590 ca         1 VAX      -0.178000
     36 C40         -0.1330     4.0000     2.7430 ca         1 VAX       0.112100
     37 C41          0.5870     2.8870     3.2290 ca         1 VAX       0.075100
     38 O42          0.7800     2.6890     4.5830 os         1 VAX      -0.312100
     39 C39          1.0820     1.9390     2.3120 ca         1 VAX       0.163100
     40 C37          0.8580     2.1080     0.9250 ca         1 VAX      -0.177000
     41 C34          1.2020     2.9750    -1.9060 c          1 VAX       0.592100
     42 O35          2.1860     3.6780    -2.1010 o          1 VAX      -0.638100
     43 N43          1.1670     1.6590    -2.3170 ns         1 VAX      -0.473900
     44 C44          2.3700     0.8890    -2.6760 c3         1 VAX       0.091000
     45 C47          2.8190     1.0940    -4.1270 ca         1 VAX      -0.175300
     46 C48          4.1180     1.5670    -4.3980 ca         1 VAX      -0.053000
     47 C50          4.6320     1.6080    -5.7140 cp         1 VAX      -0.099000
     48 C52          3.7760     1.2340    -6.7780 ca         1 VAX       0.199100
     49 O53          4.2190     1.2840    -8.0650 oh         1 VAX      -0.517100
     50 C51          2.4660     0.7990    -6.5210 ca         1 VAX      -0.146000
     51 C49          1.9900     0.7160    -5.2000 ca         1 VAX      -0.044000
     52 C45          2.1640    -0.6320    -2.3640 c          1 VAX       0.598100
     53 O46          1.0670    -1.1070    -2.1040 o          1 VAX      -0.613100
     54 N54          3.2510    -1.4720    -2.4930 ns         1 VAX      -0.471900
     55 C55          4.6770    -1.0690    -2.3570 c3         1 VAX       0.029700
     56 C58          5.2980    -1.5900    -1.0410 c3         1 VAX       0.213600
     57 O59          5.2370    -3.0270    -1.0500 os         1 VAX      -0.472000
     58 C60          4.4890    -1.0210     0.1340 ca         1 VAX      -0.120300
     59 C61          3.3900    -1.7210     0.6830 ca         1 VAX      -0.074000
     60 C63          2.5360    -1.0940     1.6060 ca         1 VAX      -0.098000
     61 C65          2.7610     0.2390     1.9840 ca         1 VAX       0.112100
     62 O66          1.8260     0.8690     2.7770 os         1 VAX      -0.203200
     63 C64          3.8870     0.9290     1.4820 ca         1 VAX       0.092000
     64 Cl6          4.2230     2.6030     1.9290 cl         1 VAX      -0.196000
     65 C62          4.7420     0.2980     0.5630 ca         1 VAX      -0.094000
     66 C56          5.4700    -1.4390    -3.6320 c          1 VAX       0.583100
     67 O57          5.2160    -2.4130    -4.3310 o          1 VAX      -0.583100
     68 N68          6.4160    -0.5040    -4.0000 ns         1 VAX      -0.443900
     69 C69          6.9010    -0.3430    -5.3910 c3         1 VAX      -0.014000
     70 C72          7.1450     1.1390    -5.7430 ca         1 VAX       0.032700
     71 C73          6.0500     2.0380    -5.9440 cp         1 VAX      -0.155000
     72 C75          6.3210     3.3750    -6.3330 ca         1 VAX       0.163100
     73 O79          5.3040     4.2490    -6.5740 oh         1 VAX      -0.536100
     74 C76          7.6340     3.8270    -6.4860 ca         1 VAX      -0.265000
     75 C77          8.7010     2.9600    -6.2520 ca         1 VAX       0.183100
     76 O78          9.9740     3.4200    -6.3940 oh         1 VAX      -0.538100
     77 C74          8.4640     1.6280    -5.8860 ca         1 VAX      -0.200000
     78 C70          8.0990    -1.2940    -5.7000 c          1 VAX       0.728000
     79 O71          8.1800    -1.7630    -6.8280 o          1 VAX      -0.704000
     80 O80          8.9200    -1.5220    -4.8200 o          1 VAX      -0.704000
     81 C81          6.0640    -3.7030    -0.0930 c6         1 VAX       0.398300
     82 O82          7.4500    -3.5020    -0.4430 os         1 VAX      -0.468000
     83 C83          7.8700    -4.1040    -1.6910 c6         1 VAX       0.147300
     84 C84          9.3420    -3.6700    -1.9000 c3         1 VAX      -0.088100
     85 C85          7.6870    -5.6550    -1.6120 c6         1 VAX       0.131300
     86 O86          8.1140    -6.3210    -2.8200 oh         1 VAX      -0.713000
     87 C87          6.1900    -6.0010    -1.2940 c6         1 VAX       0.144000
     88 N88          6.1080    -7.4890    -0.9630 nz         1 VAX      -0.984000
     89 C89          5.2380    -5.7530    -2.5020 c3         1 VAX      -0.117100
     90 C90          5.7440    -5.2200    -0.0280 c6         1 VAX      -0.126400
     91 C10          1.5300     3.6550     5.3380 c6         1 VAX       0.400300
     92 C2           1.1700     3.5600     6.8540 c6         1 VAX       0.148300
     93 O2          -0.2170     3.9160     7.1220 os         1 VAX      -0.482000
     94 C13          2.1080     4.4970     7.6670 c6         1 VAX       0.114300
     95 O3           1.8520     4.4290     9.0850 oh         1 VAX      -0.725000
     96 C22          3.5970     4.1810     7.3680 c6         1 VAX       0.118300
     97 O4           4.4200     5.1010     8.1100 oh         1 VAX      -0.717000
     98 C5           3.8400     4.2650     5.8280 c6         1 VAX       0.187300
     99 O9           2.9310     3.3680     5.1420 os         1 VAX      -0.448000
    100 C15          5.3040     3.8780     5.4240 c3         1 VAX       0.174600
    101 O6           5.6460     2.5030     5.7060 oh         1 VAX      -0.708000
    102 C1B         -1.0230     2.8910     7.7340 c6         1 VAX       0.408300
    103 C2B         -2.3250     3.4830     8.3400 c6         1 VAX      -0.131400
    104 C3B         -3.3540     3.9410     7.2710 c6         1 VAX       0.146000
    105 N3          -4.6740     4.2040     7.9890 nz         1 VAX      -0.984000
    106 C3M         -2.9370     5.2780     6.5850 c3         1 VAX      -0.114100
    107 C4B         -3.5840     2.7750     6.2500 c6         1 VAX       0.124300
    108 O4B         -4.5070     3.1810     5.2150 oh         1 VAX      -0.729000
    109 C5B         -2.2100     2.3040     5.6750 c6         1 VAX       0.152300
    110 O5B         -1.3480     1.8790     6.7580 os         1 VAX      -0.445000
    111 C5M         -2.3260     1.0940     4.7140 c3         1 VAX      -0.096100
    112 H11A         4.6260    10.8120    -0.2000 hx         1 VAX       0.103033
    113 H12          5.4680     9.6640     0.8720 hx         1 VAX       0.103033
    114 H13          6.4030    10.6980    -0.2370 hx         1 VAX       0.103033
    115 HN21         6.2450     8.4590    -1.1710 hn         1 VAX       0.523000
    116 HN22         5.4580     9.4960    -2.1420 hn         1 VAX       0.523000
    117 H3           4.0420     7.7100    -0.1750 hx         1 VAX       0.108700
    118 H61A         4.4180     7.4010    -3.1960 hc         1 VAX       0.088200
    119 H62A         3.3300     6.4200    -2.2320 hc         1 VAX       0.088200
    120 H7           6.3640     6.5370    -1.8350 hc         1 VAX       0.022700
    121 H81A         6.0420     4.5530    -0.3400 hc         1 VAX       0.054700
    122 H82          5.2430     5.9910     0.3080 hc         1 VAX       0.054700
    123 H83A         4.2820     4.7260    -0.4890 hc         1 VAX       0.054700
    124 H91          5.8020     5.4500    -3.9700 hc         1 VAX       0.054700
    125 H92          4.6630     4.3610    -3.1520 hc         1 VAX       0.054700
    126 H93          6.4030     4.2530    -2.8120 hc         1 VAX       0.054700
    127 HN0          2.1230     8.2910     0.3980 hn         1 VAX       0.329500
    128 H11          0.7310    10.5630    -0.9410 h1         1 VAX       0.133700
    129 H14         -0.8510    10.5270     0.9580 h1         1 VAX       0.134700
    130 HO5          1.9390    10.4710     1.5990 ho         1 VAX       0.425000
    131 H17         -2.2420     8.7580     1.6790 ha         1 VAX       0.165000
    132 H20          1.6930     6.2810     3.4640 ha         1 VAX       0.130000
    133 H18          2.0300     8.4730     2.3980 ha         1 VAX       0.096000
    134 HN4          0.8130     7.4020    -1.5980 hn         1 VAX       0.304500
    135 H25         -2.0270     7.2040    -2.6010 h1         1 VAX       0.142700
    136 H281        -1.0210     6.6590    -4.8710 hc         1 VAX       0.084200
    137 H282         0.5820     7.1200    -4.2000 hc         1 VAX       0.084200
    138 HN11         1.0850     9.3500    -3.9480 hn         1 VAX       0.320000
    139 HN12         0.0320    10.6100    -4.5570 hn         1 VAX       0.320000
    140 HN2          0.2010     5.5920    -0.8120 hn         1 VAX       0.310500
    141 H33         -0.9050     2.8900    -1.4300 h1         1 VAX       0.121700
    142 H38         -0.9360     4.9980     1.0110 ha         1 VAX       0.136000
    143 H37          1.2430     1.3600     0.2420 ha         1 VAX       0.143000
    144 HN3          0.3160     1.1370    -2.1370 hn         1 VAX       0.351500
    145 H44          3.1610     1.2410    -2.0020 h1         1 VAX       0.064700
    146 H48          4.7630     1.8720    -3.5790 ha         1 VAX       0.092000
    147 HO3          5.1020     1.7090    -8.0410 ho         1 VAX       0.490000
    148 H51          1.8230     0.5070    -7.3470 ha         1 VAX       0.138000
    149 H49          0.9850     0.3430    -5.0130 ha         1 VAX       0.122000
    150 HN5          3.0450    -2.4580    -2.3890 hn         1 VAX       0.336500
    151 H55          4.7440     0.0180    -2.2860 h1         1 VAX       0.068700
    152 H58          6.3380    -1.2400    -0.9800 h1         1 VAX       0.083700
    153 H61          3.1550    -2.7310     0.3530 ha         1 VAX       0.129000
    154 H63          1.6660    -1.6230     1.9870 ha         1 VAX       0.145000
    155 H62          5.5750     0.8580     0.1450 ha         1 VAX       0.132000
    156 HN8          6.5910     0.2570    -3.3560 hn         1 VAX       0.291500
    157 H69          6.0970    -0.6880    -6.0530 h1         1 VAX       0.084700
    158 HO7          5.6960     5.1070    -6.8330 ho         1 VAX       0.453000
    159 H76          7.8350     4.8540    -6.7800 ha         1 VAX       0.121000
    160 HO8         10.5950     2.6870    -6.2000 ho         1 VAX       0.480000
    161 H74          9.3140     0.9740    -5.7150 ha         1 VAX       0.158000
    162 H81          5.8790    -3.2710     0.9030 h2         1 VAX       0.084700
    163 H83          7.2710    -3.6940    -2.5180 h1         1 VAX       0.123700
    164 H841         9.4320    -2.5780    -1.8760 hc         1 VAX       0.063700
    165 H842         9.9940    -4.0780    -1.1190 hc         1 VAX       0.063700
    166 H843         9.7230    -4.0060    -2.8710 hc         1 VAX       0.063700
    167 H85          8.2960    -6.0130    -0.7690 h1         1 VAX       0.033700
    168 HO6          9.0980    -6.3800    -2.7930 ho         1 VAX       0.543000
    169 HN81         5.1490    -7.8180    -0.7840 hn         1 VAX       0.505333
    170 HN82         6.6660    -7.7530    -0.1390 hn         1 VAX       0.505333
    171 HN83         6.4740    -8.0610    -1.7390 hn         1 VAX       0.505333
    172 H891         5.2990    -4.7310    -2.8860 hc         1 VAX       0.090700
    173 H892         5.4740    -6.4170    -3.3410 hc         1 VAX       0.090700
    174 H893         4.1920    -5.9340    -2.2300 hc         1 VAX       0.090700
    175 H901         6.2530    -5.6280     0.8550 hc         1 VAX       0.069700
    176 H902         4.6700    -5.3590     0.1540 hc         1 VAX       0.069700
    177 H1           1.3120     4.6710     4.9880 h2         1 VAX       0.027700
    178 H2           1.3550     2.5220     7.1670 h1         1 VAX       0.097700
    179 H10          1.9140     5.5240     7.3180 h1         1 VAX       0.044700
    180 H15          0.9250     4.7390     9.2150 ho         1 VAX       0.515000
    181 H4           3.8030     3.1470     7.6890 h1         1 VAX       0.086700
    182 HO4          3.9480     5.2040     8.9730 ho         1 VAX       0.521000
    183 H5           3.6490     5.2920     5.4810 h1         1 VAX       0.037700
    184 H6'1         5.4130     4.0770     4.3490 h1         1 VAX       0.038700
    185 H6'2         5.9950     4.5550     5.9430 h1         1 VAX       0.038700
    186 H16          6.5440     2.3480     5.3340 ho         1 VAX       0.510000
    187 H1B         -0.4500     2.4280     8.5550 h2         1 VAX       0.107700
    188 H2'1        -2.7750     2.7100     8.9770 hc         1 VAX       0.076700
    189 H2'2        -2.0710     4.3140     9.0110 hc         1 VAX       0.076700
    190 HN31        -4.6350     4.9970     8.6450 hn         1 VAX       0.508333
    191 HN32        -5.0150     3.3950     8.5270 hn         1 VAX       0.508333
    192 HN33        -5.4220     4.4200     7.3130 hn         1 VAX       0.508333
    193 H3M1        -2.7220     6.0560     7.3270 hc         1 VAX       0.081033
    194 H3M2        -2.0470     5.1760     5.9580 hc         1 VAX       0.081033
    195 H3M3        -3.7350     5.6600     5.9380 hc         1 VAX       0.081033
    196 H4B         -4.0130     1.9260     6.8050 h1         1 VAX       0.049700
    197 HO4A        -4.8590     2.3630     4.7920 ho         1 VAX       0.544000
    198 H5B         -1.7300     3.1280     5.1310 h1         1 VAX       0.089700
    199 H5M1        -2.8680     1.3620     3.8010 hc         1 VAX       0.061033
    200 H5M2        -1.3340     0.7400     4.4110 hc         1 VAX       0.061033
    201 H5M3        -2.8490     0.2550     5.1880 hc         1 VAX       0.061033
@<TRIPOS>BOND
     1     1     2 1   
     2     1   112 1   
     3     1   113 1   
     4     1   114 1   
     5     2     3 1   
     6     2   115 1   
     7     2   116 1   
     8     3     4 1   
     9     3     8 1   
    10     3   117 1   
    11     4     5 1   
    12     4   118 1   
    13     4   119 1   
    14     5     6 1   
    15     5     7 1   
    16     5   120 1   
    17     6   121 1   
    18     6   122 1   
    19     6   123 1   
    20     7   124 1   
    21     7   125 1   
    22     7   126 1   
    23     8     9 2   
    24     8    10 1   
    25    10    11 1   
    26    10   127 1   
    27    11    12 1   
    28    11    22 1   
    29    11   128 1   
    30    12    13 1   
    31    12    14 1   
    32    12   129 1   
    33    13   130 1   
    34    14    15 ar  
    35    14    21 ar  
    36    15    16 ar  
    37    15   131 1   
    38    16    17 1   
    39    16    18 ar  
    40    18    19 1   
    41    18    20 ar  
    42    19    36 1   
    43    20    21 ar  
    44    20   132 1   
    45    21   133 1   
    46    22    23 2   
    47    22    24 1   
    48    24    25 1   
    49    24   134 1   
    50    25    26 1   
    51    25    30 1   
    52    25   135 1   
    53    26    27 1   
    54    26   136 1   
    55    26   137 1   
    56    27    28 2   
    57    27    29 1   
    58    29   138 1   
    59    29   139 1   
    60    30    31 2   
    61    30    32 1   
    62    32    33 1   
    63    32   140 1   
    64    33    34 1   
    65    33    41 1   
    66    33   141 1   
    67    34    35 ar  
    68    34    40 ar  
    69    35    36 ar  
    70    35   142 1   
    71    36    37 ar  
    72    37    38 1   
    73    37    39 ar  
    74    38    91 1   
    75    39    40 ar  
    76    39    62 1   
    77    40   143 1   
    78    41    42 2   
    79    41    43 1   
    80    43    44 1   
    81    43   144 1   
    82    44    45 1   
    83    44    52 1   
    84    44   145 1   
    85    45    46 ar  
    86    45    51 ar  
    87    46    47 ar  
    88    46   146 1   
    89    47    48 ar  
    90    47    71 1   
    91    48    49 1   
    92    48    50 ar  
    93    49   147 1   
    94    50    51 ar  
    95    50   148 1   
    96    51   149 1   
    97    52    53 2   
    98    52    54 1   
    99    54    55 1   
   100    54   150 1   
   101    55    56 1   
   102    55    66 1   
   103    55   151 1   
   104    56    57 1   
   105    56    58 1   
   106    56   152 1   
   107    57    81 1   
   108    58    59 ar  
   109    58    65 ar  
   110    59    60 ar  
   111    59   153 1   
   112    60    61 ar  
   113    60   154 1   
   114    61    62 1   
   115    61    63 ar  
   116    63    64 1   
   117    63    65 ar  
   118    65   155 1   
   119    66    67 2   
   120    66    68 1   
   121    68    69 1   
   122    68   156 1   
   123    69    70 1   
   124    69    78 1   
   125    69   157 1   
   126    70    71 ar  
   127    70    77 ar  
   128    71    72 ar  
   129    72    73 1   
   130    72    74 ar  
   131    73   158 1   
   132    74    75 ar  
   133    74   159 1   
   134    75    76 1   
   135    75    77 ar  
   136    76   160 1   
   137    77   161 1   
   138    78    79 1   
   139    78    80 1   
   140    81    82 1   
   141    81    90 1   
   142    81   162 1   
   143    82    83 1   
   144    83    84 1   
   145    83    85 1   
   146    83   163 1   
   147    84   164 1   
   148    84   165 1   
   149    84   166 1   
   150    85    86 1   
   151    85    87 1   
   152    85   167 1   
   153    86   168 1   
   154    87    88 1   
   155    87    89 1   
   156    87    90 1   
   157    88   169 1   
   158    88   170 1   
   159    88   171 1   
   160    89   172 1   
   161    89   173 1   
   162    89   174 1   
   163    90   175 1   
   164    90   176 1   
   165    91    92 1   
   166    91    99 1   
   167    91   177 1   
   168    92    93 1   
   169    92    94 1   
   170    92   178 1   
   171    93   102 1   
   172    94    95 1   
   173    94    96 1   
   174    94   179 1   
   175    95   180 1   
   176    96    97 1   
   177    96    98 1   
   178    96   181 1   
   179    97   182 1   
   180    98    99 1   
   181    98   100 1   
   182    98   183 1   
   183   100   101 1   
   184   100   184 1   
   185   100   185 1   
   186   101   186 1   
   187   102   103 1   
   188   102   110 1   
   189   102   187 1   
   190   103   104 1   
   191   103   188 1   
   192   103   189 1   
   193   104   105 1   
   194   104   106 1   
   195   104   107 1   
   196   105   190 1   
   197   105   191 1   
   198   105   192 1   
   199   106   193 1   
   200   106   194 1   
   201   106   195 1   
   202   107   108 1   
   203   107   109 1   
   204   107   196 1   
   205   108   197 1   
   206   109   110 1   
   207   109   111 1   
   208   109   198 1   
   209   111   199 1   
   210   111   200 1   
   211   111   201 1   
@<TRIPOS>SUBSTRUCTURE
     1 VAX         1 TEMP              0 ****  ****    0 ROOT
