@<TRIPOS>MOLECULE
VAX
  201   211     1     0     0
SMALL
abcg2


@<TRIPOS>ATOM
      1 C1           5.0760    10.1210     0.5090 c3         1 VAX       0.076900
      2 N2           4.9450     9.4130    -0.7890 ny         1 VAX      -0.810000
      3 C3           3.8160     8.4460    -0.8550 c3         1 VAX       0.005300
      4 C6           3.9890     7.4610    -2.0130 c3         1 VAX      -0.105400
      5 C7           5.2210     6.5520    -1.9310 c3         1 VAX      -0.061700
      6 C8           5.2230     5.6830    -0.6770 c3         1 VAX      -0.101600
      7 C9           5.2840     5.6940    -3.1910 c3         1 VAX      -0.101600
      8 C4           2.5400     9.2680    -1.0400 c          1 VAX       0.576100
      9 O5           2.5710    10.3540    -1.5860 o          1 VAX      -0.560100
     10 N10          1.4300     8.6630    -0.5840 ns         1 VAX      -0.491900
     11 C11          0.1110     9.2490    -0.6030 c3         1 VAX      -0.027300
     12 C14         -0.3250     9.7130     0.8160 c3         1 VAX       0.219600
     13 O15          0.4950    10.7510     1.2710 oh         1 VAX      -0.617000
     14 C16         -0.4000     8.5300     1.7560 ca         1 VAX      -0.118300
     15 C17         -1.6230     7.9070     1.9750 ca         1 VAX      -0.060000
     16 C19         -1.6820     6.6870     2.6290 ca         1 VAX       0.105000
     17 CL2         -3.1880     5.8730     2.8240 cl         1 VAX      -0.144000
     18 C21         -0.5160     6.0730     3.0600 ca         1 VAX       0.094100
     19 O22         -0.5430     4.7810     3.5070 os         1 VAX      -0.239200
     20 C20          0.6910     6.7440     2.9570 ca         1 VAX      -0.124000
     21 C18          0.7470     7.9720     2.3220 ca         1 VAX      -0.122000
     22 C12         -0.9250     8.3280    -1.2510 c          1 VAX       0.601100
     23 O13         -2.1110     8.4820    -1.0300 o          1 VAX      -0.543100
     24 N24         -0.4340     7.3870    -2.0830 ns         1 VAX      -0.509900
     25 C25         -1.2720     6.5050    -2.8590 c3         1 VAX       0.034700
     26 C28         -0.9090     6.5950    -4.3410 c3         1 VAX      -0.184400
     27 C29         -1.1510     7.9900    -4.8880 c          1 VAX       0.598100
     28 O30         -2.1450     8.6330    -4.5880 o          1 VAX      -0.582100
     29 N31         -0.2130     8.4360    -5.7340 nt         1 VAX      -0.610000
     30 C26         -1.2130     5.0360    -2.4300 c          1 VAX       0.590100
     31 O27         -1.9710     4.2310    -2.9410 o          1 VAX      -0.559100
     32 N32         -0.2890     4.7100    -1.5060 ns         1 VAX      -0.492900
     33 C33          0.0210     3.3450    -1.1750 c3         1 VAX       0.070000
     34 C36          0.2170     3.1380     0.3220 ca         1 VAX      -0.028300
     35 C38         -0.2560     4.0720     1.2260 ca         1 VAX      -0.178000
     36 C40         -0.0960     3.8670     2.5920 ca         1 VAX       0.112100
     37 C41          0.5410     2.7330     3.0850 ca         1 VAX       0.075100
     38 O42          0.5960     2.4700     4.4180 os         1 VAX      -0.312100
     39 C39          1.0580     1.8280     2.1570 ca         1 VAX       0.163100
     40 C37          0.8630     2.0030     0.7960 ca         1 VAX      -0.177000
     41 C34          1.3090     2.9290    -1.8960 c          1 VAX       0.592100
     42 O35          2.2710     3.6750    -1.9330 o          1 VAX      -0.638100
     43 N43          1.3040     1.6900    -2.4060 ns         1 VAX      -0.473900
     44 C44          2.5300     1.0090    -2.7400 c3         1 VAX       0.091000
     45 C47          3.0340     1.2030    -4.1540 ca         1 VAX      -0.175300
     46 C48          4.3310     1.6410    -4.3670 ca         1 VAX      -0.053000
     47 C50          4.9230     1.6300    -5.6260 cp         1 VAX      -0.099000
     48 C52          4.1550     1.2270    -6.7190 ca         1 VAX       0.199100
     49 O53          4.6520     1.1740    -7.9670 oh         1 VAX      -0.517100
     50 C51          2.8240     0.8480    -6.5310 ca         1 VAX      -0.146000
     51 C49          2.2780     0.8200    -5.2610 ca         1 VAX      -0.044000
     52 C45          2.2880    -0.4930    -2.5330 c          1 VAX       0.598100
     53 O46          1.1510    -0.9360    -2.5240 o          1 VAX      -0.613100
     54 N54          3.3640    -1.2900    -2.4270 ns         1 VAX      -0.471900
     55 C55          4.7450    -0.9120    -2.3270 c3         1 VAX       0.029700
     56 C58          5.3770    -1.4930    -1.0480 c3         1 VAX       0.213600
     57 O59          5.3830    -2.8910    -1.1640 os         1 VAX      -0.472000
     58 C60          4.5400    -0.9890     0.1090 ca         1 VAX      -0.120300
     59 C61          3.4900    -1.7250     0.6450 ca         1 VAX      -0.074000
     60 C63          2.5840    -1.1290     1.5090 ca         1 VAX      -0.098000
     61 C65          2.7080     0.2080     1.8490 ca         1 VAX       0.112100
     62 O66          1.7600     0.7710     2.6520 os         1 VAX      -0.203200
     63 C64          3.7970     0.9310     1.3610 ca         1 VAX       0.092000
     64 CL6          4.0090     2.5950     1.7640 cl         1 VAX      -0.196000
     65 C62          4.7050     0.3320     0.5060 ca         1 VAX      -0.094000
     66 C56          5.4700    -1.2520    -3.6380 c          1 VAX       0.583100
     67 O57          5.0450    -2.1120    -4.3910 o          1 VAX      -0.583100
     68 N68          6.5190    -0.4710    -3.9210 ns         1 VAX      -0.443900
     69 C69          7.0390    -0.3700    -5.2710 c3         1 VAX      -0.014000
     70 C72          7.3840     1.0820    -5.5500 ca         1 VAX       0.032700
     71 C73          6.3520     2.0070    -5.7650 cp         1 VAX      -0.155000
     72 C75          6.6860     3.3400    -6.0290 ca         1 VAX       0.163100
     73 O79          5.6660     4.1890    -6.2510 oh         1 VAX      -0.536100
     74 C76          8.0100     3.7580    -6.0520 ca         1 VAX      -0.265000
     75 C77          9.0180     2.8350    -5.8040 ca         1 VAX       0.183100
     76 O78         10.2840     3.2870    -5.8200 oh         1 VAX      -0.538100
     77 C74          8.7070     1.5020    -5.5510 ca         1 VAX      -0.200000
     78 C70          8.2020    -1.3460    -5.5950 c          1 VAX       0.728000
     79 O71          8.4160    -1.4970    -6.8110 o          1 VAX      -0.704000
     80 O80          8.8000    -1.8650    -4.6380 o          1 VAX      -0.704000
     81 C81          6.1930    -3.5650    -0.2340 c6         1 VAX       0.398300
     82 O82          7.5450    -3.3170    -0.4430 os         1 VAX      -0.468000
     83 C83          8.1160    -3.8680    -1.6250 c6         1 VAX       0.147300
     84 C84          9.5780    -3.4750    -1.6290 c3         1 VAX      -0.088100
     85 C85          7.9330    -5.3910    -1.6160 c6         1 VAX       0.131300
     86 O86          8.4480    -5.9990    -2.7700 oh         1 VAX      -0.713000
     87 C87          6.4460    -5.7460    -1.5150 c6         1 VAX       0.144000
     88 N88          6.3690    -7.2300    -1.2670 nz         1 VAX      -0.984000
     89 C89          5.6630    -5.4870    -2.7960 c3         1 VAX      -0.117100
     90 C90          5.8620    -5.0490    -0.2870 c6         1 VAX      -0.126400
     91 C10          1.5610     3.1040     5.2030 c6         1 VAX       0.400300
     92 C2           1.1120     3.0220     6.6610 c6         1 VAX       0.148300
     93 O2          -0.0720     3.7530     6.8600 os         1 VAX      -0.482000
     94 C13          2.2150     3.5950     7.5450 c6         1 VAX       0.114300
     95 O3           1.8320     3.4390     8.8920 oh         1 VAX      -0.725000
     96 C22          3.5410     2.8900     7.2680 c6         1 VAX       0.118300
     97 O4           4.6050     3.5150     7.9450 oh         1 VAX      -0.717000
     98 C5           3.8480     2.9420     5.7710 c6         1 VAX       0.187300
     99 O9           2.7560     2.4020     5.0490 os         1 VAX      -0.448000
    100 C15          5.0940     2.1770     5.3780 c3         1 VAX       0.174600
    101 O6           4.9520     0.8240     5.7420 oh         1 VAX      -0.708000
    102 C1B         -1.0810     3.1170     7.5900 c6         1 VAX       0.408300
    103 C2B         -1.8500     4.1500     8.4040 c6         1 VAX      -0.131400
    104 C3B         -2.8110     4.9830     7.5610 c6         1 VAX       0.146000
    105 N3          -3.7380     5.6980     8.5080 nz         1 VAX      -0.984000
    106 C3M         -2.1210     6.0660     6.7400 c3         1 VAX      -0.114100
    107 C4B         -3.6750     4.0290     6.7310 c6         1 VAX       0.124300
    108 O4B         -4.5360     4.8000     5.9380 oh         1 VAX      -0.729000
    109 C5B         -2.7780     3.1010     5.9040 c6         1 VAX       0.152300
    110 O5B         -1.9290     2.3650     6.7740 os         1 VAX      -0.445000
    111 C5M         -3.5800     2.0930     5.1070 c3         1 VAX      -0.096100
    112 H11A         4.1640    10.6700     0.7190 hx         1 VAX       0.103033
    113 H12          5.2590     9.3850     1.2860 hx         1 VAX       0.103033
    114 H13          5.9120    10.8090     0.4400 hx         1 VAX       0.103033
    115 HN21         5.8230     8.9290    -0.9870 hn         1 VAX       0.523000
    116 HN22         4.8290    10.0980    -1.5430 hn         1 VAX       0.523000
    117 H3           3.7970     7.9180     0.1010 hx         1 VAX       0.108700
    118 H61A         4.0010     8.0210    -2.9530 hc         1 VAX       0.088200
    119 H62A         3.0940     6.8320    -2.0340 hc         1 VAX       0.088200
    120 H7           6.1290     7.1690    -1.9270 hc         1 VAX       0.022700
    121 H81A         6.0790     5.0080    -0.6850 hc         1 VAX       0.054700
    122 H82          5.2870     6.2680     0.2420 hc         1 VAX       0.054700
    123 H83A         4.3190     5.0750    -0.6250 hc         1 VAX       0.054700
    124 H91          5.3060     6.3110    -4.0900 hc         1 VAX       0.054700
    125 H92          4.4180     5.0330    -3.2580 hc         1 VAX       0.054700
    126 H93          6.1800     5.0730    -3.1920 hc         1 VAX       0.054700
    127 HN0          1.5370     7.7720    -0.1170 hn         1 VAX       0.329500
    128 H11          0.1550    10.1450    -1.2300 h1         1 VAX       0.133700
    129 H14         -1.3210    10.1460     0.7140 h1         1 VAX       0.134700
    130 HO5          1.4060    10.4560     1.3650 ho         1 VAX       0.425000
    131 H17         -2.5340     8.3460     1.5920 ha         1 VAX       0.165000
    132 H20          1.5940     6.2780     3.3320 ha         1 VAX       0.130000
    133 H18          1.7130     8.4540     2.2400 ha         1 VAX       0.096000
    134 HN4          0.5500     7.4170    -2.3120 hn         1 VAX       0.304500
    135 H25         -2.3070     6.8220    -2.7260 h1         1 VAX       0.142700
    136 H281        -1.5360     5.9050    -4.9080 hc         1 VAX       0.084200
    137 H282         0.1260     6.2780    -4.4930 hc         1 VAX       0.084200
    138 HN11         0.5990     7.8910    -5.9670 hn         1 VAX       0.320000
    139 HN12        -0.3200     9.3270    -6.1910 hn         1 VAX       0.320000
    140 HN2          0.3530     5.4220    -1.1920 hn         1 VAX       0.310500
    141 H33         -0.8170     2.7270    -1.5070 h1         1 VAX       0.121700
    142 H38         -0.7560     4.9600     0.8640 ha         1 VAX       0.136000
    143 H37          1.2400     1.2540     0.1130 ha         1 VAX       0.143000
    144 HN3          0.4720     1.1180    -2.3540 hn         1 VAX       0.351500
    145 H44          3.2960     1.3650    -2.0460 h1         1 VAX       0.064700
    146 H48          4.9280     1.9780    -3.5270 ha         1 VAX       0.092000
    147 HO3          5.5830     1.4290    -7.9660 ho         1 VAX       0.490000
    148 H51          2.2320     0.5460    -7.3850 ha         1 VAX       0.138000
    149 H49          1.2570     0.4800    -5.1360 ha         1 VAX       0.122000
    150 HN5          3.1620    -2.2810    -2.4120 hn         1 VAX       0.336500
    151 H55          4.8140     0.1650    -2.1960 h1         1 VAX       0.068700
    152 H58          6.3970    -1.0950    -0.9690 h1         1 VAX       0.083700
    153 H61          3.3370    -2.7570     0.3600 ha         1 VAX       0.129000
    154 H63          1.7470    -1.6950     1.8970 ha         1 VAX       0.145000
    155 H62          5.5250     0.9200     0.1100 ha         1 VAX       0.132000
    156 HN8          6.8120     0.2190    -3.2470 hn         1 VAX       0.291500
    157 H69          6.2200    -0.6460    -5.9400 h1         1 VAX       0.084700
    158 HO7          5.9940     5.0860    -6.3840 ho         1 VAX       0.453000
    159 H76          8.2620     4.7930    -6.2570 ha         1 VAX       0.121000
    160 HO8         10.9020     2.5650    -5.6540 ho         1 VAX       0.480000
    161 H74          9.5050     0.7970    -5.3500 ha         1 VAX       0.158000
    162 H81          5.9880    -3.1960     0.7780 h2         1 VAX       0.084700
    163 H83          7.6390    -3.4450    -2.5180 h1         1 VAX       0.123700
    164 H841         9.6770    -2.3910    -1.5970 hc         1 VAX       0.063700
    165 H842        10.1070    -3.8990    -0.7740 hc         1 VAX       0.063700
    166 H843        10.0650    -3.8140    -2.5420 hc         1 VAX       0.063700
    167 H85          8.4310    -5.7730    -0.7100 h1         1 VAX       0.033700
    168 HO6          9.3940    -6.1390    -2.6610 ho         1 VAX       0.543000
    169 HN81         5.4010    -7.5530    -1.2000 hn         1 VAX       0.505333
    170 HN82         6.8350    -7.5090    -0.4010 hn         1 VAX       0.505333
    171 HN83         6.8110    -7.7540    -2.0260 hn         1 VAX       0.505333
    172 H891         5.7510    -4.4540    -3.1170 hc         1 VAX       0.090700
    173 H892         6.0100    -6.1200    -3.6120 hc         1 VAX       0.090700
    174 H893         4.6040    -5.6910    -2.6350 hc         1 VAX       0.090700
    175 H901         6.2880    -5.4970     0.6160 hc         1 VAX       0.069700
    176 H902         4.7810    -5.1930    -0.2330 hc         1 VAX       0.069700
    177 H1           1.6920     4.1560     4.9000 h2         1 VAX       0.027700
    178 H2           0.9680     1.9590     6.9030 h1         1 VAX       0.097700
    179 H10          2.3350     4.6590     7.2930 h1         1 VAX       0.044700
    180 H15          2.1060     4.2140     9.3890 ho         1 VAX       0.515000
    181 H4           3.4410     1.8390     7.5720 h1         1 VAX       0.086700
    182 HO4          4.5380     3.3040     8.8810 ho         1 VAX       0.521000
    183 H5           4.0090     3.9940     5.4810 h1         1 VAX       0.037700
    184 H6'1         5.2430     2.2920     4.2980 h1         1 VAX       0.038700
    185 H6'2         5.9490     2.6510     5.8700 h1         1 VAX       0.038700
    186 H16          5.7830     0.3780     5.5610 ho         1 VAX       0.510000
    187 H1B         -0.6410     2.3940     8.2820 h2         1 VAX       0.107700
    188 H2'1        -2.4230     3.5970     9.1540 hc         1 VAX       0.076700
    189 H2'2        -1.1490     4.7900     8.9430 hc         1 VAX       0.076700
    190 HN31        -3.2410     6.3800     9.0850 hn         1 VAX       0.508333
    191 HN32        -4.2130     5.0580     9.1480 hn         1 VAX       0.508333
    192 HN33        -4.4650     6.2070     7.9990 hn         1 VAX       0.508333
    193 H3M1        -1.5040     6.6880     7.3900 hc         1 VAX       0.081033
    194 H3M2        -1.4660     5.6360     5.9900 hc         1 VAX       0.081033
    195 H3M3        -2.8400     6.7080     6.2320 hc         1 VAX       0.081033
    196 H4B         -4.2410     3.3960     7.4330 h1         1 VAX       0.049700
    197 HO4A        -5.3110     4.2770     5.7100 ho         1 VAX       0.544000
    198 H5B         -2.1860     3.7000     5.2030 h1         1 VAX       0.089700
    199 H5M1        -4.2080     2.5920     4.3690 hc         1 VAX       0.061033
    200 H5M2        -2.9120     1.4250     4.5630 hc         1 VAX       0.061033
    201 H5M3        -4.2190     1.4900     5.7540 hc         1 VAX       0.061033
@<TRIPOS>BOND
     1     1     2 1   
     2     1   112 1   
     3     1   113 1   
     4     1   114 1   
     5     2     3 1   
     6     2   115 1   
     7     2   116 1   
     8     3     4 1   
     9     3     8 1   
    10     3   117 1   
    11     4     5 1   
    12     4   118 1   
    13     4   119 1   
    14     5     6 1   
    15     5     7 1   
    16     5   120 1   
    17     6   121 1   
    18     6   122 1   
    19     6   123 1   
    20     7   124 1   
    21     7   125 1   
    22     7   126 1   
    23     8     9 2   
    24     8    10 1   
    25    10    11 1   
    26    10   127 1   
    27    11    12 1   
    28    11    22 1   
    29    11   128 1   
    30    12    13 1   
    31    12    14 1   
    32    12   129 1   
    33    13   130 1   
    34    14    15 ar  
    35    14    21 ar  
    36    15    16 ar  
    37    15   131 1   
    38    16    17 1   
    39    16    18 ar  
    40    18    19 1   
    41    18    20 ar  
    42    19    36 1   
    43    20    21 ar  
    44    20   132 1   
    45    21   133 1   
    46    22    23 2   
    47    22    24 1   
    48    24    25 1   
    49    24   134 1   
    50    25    26 1   
    51    25    30 1   
    52    25   135 1   
    53    26    27 1   
    54    26   136 1   
    55    26   137 1   
    56    27    28 2   
    57    27    29 1   
    58    29   138 1   
    59    29   139 1   
    60    30    31 2   
    61    30    32 1   
    62    32    33 1   
    63    32   140 1   
    64    33    34 1   
    65    33    41 1   
    66    33   141 1   
    67    34    35 ar  
    68    34    40 ar  
    69    35    36 ar  
    70    35   142 1   
    71    36    37 ar  
    72    37    38 1   
    73    37    39 ar  
    74    38    91 1   
    75    39    40 ar  
    76    39    62 1   
    77    40   143 1   
    78    41    42 2   
    79    41    43 1   
    80    43    44 1   
    81    43   144 1   
    82    44    45 1   
    83    44    52 1   
    84    44   145 1   
    85    45    46 ar  
    86    45    51 ar  
    87    46    47 ar  
    88    46   146 1   
    89    47    48 ar  
    90    47    71 1   
    91    48    49 1   
    92    48    50 ar  
    93    49   147 1   
    94    50    51 ar  
    95    50   148 1   
    96    51   149 1   
    97    52    53 2   
    98    52    54 1   
    99    54    55 1   
   100    54   150 1   
   101    55    56 1   
   102    55    66 1   
   103    55   151 1   
   104    56    57 1   
   105    56    58 1   
   106    56   152 1   
   107    57    81 1   
   108    58    59 ar  
   109    58    65 ar  
   110    59    60 ar  
   111    59   153 1   
   112    60    61 ar  
   113    60   154 1   
   114    61    62 1   
   115    61    63 ar  
   116    63    64 1   
   117    63    65 ar  
   118    65   155 1   
   119    66    67 2   
   120    66    68 1   
   121    68    69 1   
   122    68   156 1   
   123    69    70 1   
   124    69    78 1   
   125    69   157 1   
   126    70    71 ar  
   127    70    77 ar  
   128    71    72 ar  
   129    72    73 1   
   130    72    74 ar  
   131    73   158 1   
   132    74    75 ar  
   133    74   159 1   
   134    75    76 1   
   135    75    77 ar  
   136    76   160 1   
   137    77   161 1   
   138    78    79 1   
   139    78    80 1   
   140    81    82 1   
   141    81    90 1   
   142    81   162 1   
   143    82    83 1   
   144    83    84 1   
   145    83    85 1   
   146    83   163 1   
   147    84   164 1   
   148    84   165 1   
   149    84   166 1   
   150    85    86 1   
   151    85    87 1   
   152    85   167 1   
   153    86   168 1   
   154    87    88 1   
   155    87    89 1   
   156    87    90 1   
   157    88   169 1   
   158    88   170 1   
   159    88   171 1   
   160    89   172 1   
   161    89   173 1   
   162    89   174 1   
   163    90   175 1   
   164    90   176 1   
   165    91    92 1   
   166    91    99 1   
   167    91   177 1   
   168    92    93 1   
   169    92    94 1   
   170    92   178 1   
   171    93   102 1   
   172    94    95 1   
   173    94    96 1   
   174    94   179 1   
   175    95   180 1   
   176    96    97 1   
   177    96    98 1   
   178    96   181 1   
   179    97   182 1   
   180    98    99 1   
   181    98   100 1   
   182    98   183 1   
   183   100   101 1   
   184   100   184 1   
   185   100   185 1   
   186   101   186 1   
   187   102   103 1   
   188   102   110 1   
   189   102   187 1   
   190   103   104 1   
   191   103   188 1   
   192   103   189 1   
   193   104   105 1   
   194   104   106 1   
   195   104   107 1   
   196   105   190 1   
   197   105   191 1   
   198   105   192 1   
   199   106   193 1   
   200   106   194 1   
   201   106   195 1   
   202   107   108 1   
   203   107   109 1   
   204   107   196 1   
   205   108   197 1   
   206   109   110 1   
   207   109   111 1   
   208   109   198 1   
   209   111   199 1   
   210   111   200 1   
   211   111   201 1   
@<TRIPOS>SUBSTRUCTURE
     1 VAX         1 TEMP              0 ****  ****    0 ROOT
