@<TRIPOS>MOLECULE
VAY
   61    64     1     0     0
SMALL
No Charge or Current Charge


@<TRIPOS>ATOM
      1 C4          34.8000    -3.5790    26.4820 c5         1 VAY      -0.091400
      2 C5          33.6690    -3.4240    25.4040 c5         1 VAY      -0.079700
      3 C6          32.3840    -2.7790    25.9700 c3         1 VAY       0.205600
      4 C8          37.4350    -4.7170    27.5060 ca         1 VAY       0.430900
      5 C10         39.3350    -3.5980    26.8710 ca         1 VAY       0.191900
      6 C13         37.7780    -4.5330    28.8550 ca         1 VAY      -0.363600
      7 C15         37.5810    -5.4310    31.2390 cc         1 VAY      -0.324600
      8 C20         38.8810    -5.8590    31.3870 cd         1 VAY      -0.047000
      9 C21         40.5950    -6.8040    33.0710 c3         1 VAY       0.215000
     10 C22         41.0360    -7.9560    32.1310 ca         1 VAY       0.318300
     11 C24         42.6020    -8.7590    30.6100 ca         1 VAY       0.417200
     12 C26         40.6840   -10.1410    31.1240 ca         1 VAY      -0.070000
     13 C27         40.2560    -9.1230    31.9920 ca         1 VAY      -0.131000
     14 C25         41.8830    -9.9500    30.4200 ca         1 VAY      -0.132000
     15 Br28        44.2360    -8.4540    29.6700 br         1 VAY      -0.148200
     16 N23         42.2000    -7.7740    31.4440 nb         1 VAY      -0.678000
     17 O30         41.5150    -5.7140    32.9250 oh         1 VAY      -0.654000
     18 C29         40.6890    -7.2650    34.5460 c3         1 VAY      -0.109100
     19 C19         39.2050    -6.3030    32.7030 cd         1 VAY      -0.116300
     20 C18         38.1100    -6.2420    33.5410 cc         1 VAY      -0.240000
     21 S17         36.6660    -5.6710    32.7130 ss         1 VAY       0.302000
     22 C14         36.9220    -5.0470    29.9740 c          1 VAY       0.654300
     23 O16         35.7030    -5.0650    29.8650 o          1 VAY      -0.580100
     24 C12         38.9470    -3.7930    29.1160 ca         1 VAY       0.183900
     25 N11         39.7320    -3.3260    28.1270 nb         1 VAY      -0.222000
     26 N9          38.2250    -4.2680    26.5110 nb         1 VAY      -0.276000
     27 N7          36.2720    -5.4030    27.1570 nu         1 VAY      -0.912100
     28 C3          35.5570    -4.8300    25.9720 c5         1 VAY       0.190500
     29 C2          34.3420    -5.7730    25.7410 c5         1 VAY       0.115300
     30 O32         34.7050    -7.0250    25.1380 oh         1 VAY      -0.650000
     31 C1          33.4680    -4.8720    24.8110 c5         1 VAY       0.190300
     32 O31         33.9380    -4.9510    23.4620 oh         1 VAY      -0.654000
     33 O33         31.4540    -2.6410    24.8890 os         1 VAY      -0.588700
     34 S34         30.0320    -1.9480    25.2620 s6         1 VAY       1.399800
     35 O35         29.3860    -2.6490    26.3690 o          1 VAY      -0.536500
     36 O36         30.1680    -0.4960    25.2130 o          1 VAY      -0.536500
     37 N37         29.3020    -2.3800    23.8930 n8         1 VAY      -1.045100
     38 H1          35.4450    -2.6950    26.5390 hc         1 VAY       0.055200
     39 H2          34.3760    -3.7320    27.4830 hc         1 VAY       0.055200
     40 H3          34.0110    -2.7470    24.6130 hc         1 VAY       0.104700
     41 H4          32.6350    -1.7990    26.4010 h1         1 VAY       0.047200
     42 H5          31.9780    -3.4170    26.7670 h1         1 VAY       0.047200
     43 H6          39.9690    -3.2300    26.0660 h5         1 VAY       0.050100
     44 H7          39.6040    -5.8850    30.5760 ha         1 VAY       0.151000
     45 H8          40.1000   -11.0510    30.9980 ha         1 VAY       0.127000
     46 H9          39.3300    -9.2320    32.5500 ha         1 VAY       0.136000
     47 H10         42.2550   -10.7080    29.7360 ha         1 VAY       0.144000
     48 H11         42.1780    -6.0820    32.2890 ho         1 VAY       0.481000
     49 H12         39.9970    -8.0910    34.7440 hc         1 VAY       0.048700
     50 H13         41.7030    -7.6130    34.7780 hc         1 VAY       0.048700
     51 H14         40.4490    -6.4430    35.2300 hc         1 VAY       0.048700
     52 H15         38.0300    -6.5110    34.5860 h4         1 VAY       0.154000
     53 H16         39.2630    -3.5490    30.1290 h4         1 VAY       0.035100
     54 H17         35.7190    -5.6110    27.9950 hn         1 VAY       0.523000
     55 H18         36.1530    -4.6640    25.0590 h1         1 VAY       0.120700
     56 H19         33.8070    -5.9600    26.6830 h1         1 VAY       0.037700
     57 H20         35.4740    -7.3530    25.6590 ho         1 VAY       0.459000
     58 H21         32.4150    -5.1840    24.8610 h1         1 VAY       0.062700
     59 H22         34.2700    -5.8760    23.3790 ho         1 VAY       0.467000
     60 H23         29.2300    -1.4630    23.4630 hn         1 VAY       0.483500
     61 H24         30.1270    -2.7850    23.4570 hn         1 VAY       0.483500
@<TRIPOS>BOND
     1     1     2 1   
     2     1    28 1   
     3     1    38 1   
     4     1    39 1   
     5     2     3 1   
     6     2    31 1   
     7     2    40 1   
     8     3    33 1   
     9     3    41 1   
    10     3    42 1   
    11     4     6 ar  
    12     4    26 ar  
    13     4    27 1   
    14     5    25 ar  
    15     5    26 ar  
    16     5    43 1   
    17     6    22 1   
    18     6    24 ar  
    19     7     8 2   
    20     7    21 1   
    21     7    22 1   
    22     8    19 1   
    23     8    44 1   
    24     9    10 1   
    25     9    17 1   
    26     9    18 1   
    27     9    19 1   
    28    10    13 ar  
    29    10    16 ar  
    30    11    14 ar  
    31    11    15 1   
    32    11    16 ar  
    33    12    13 ar  
    34    12    14 ar  
    35    12    45 1   
    36    13    46 1   
    37    14    47 1   
    38    17    48 1   
    39    18    49 1   
    40    18    50 1   
    41    18    51 1   
    42    19    20 2   
    43    20    21 1   
    44    20    52 1   
    45    22    23 2   
    46    24    25 ar  
    47    24    53 1   
    48    27    28 1   
    49    27    54 1   
    50    28    29 1   
    51    28    55 1   
    52    29    30 1   
    53    29    31 1   
    54    29    56 1   
    55    30    57 1   
    56    31    32 1   
    57    31    58 1   
    58    32    59 1   
    59    33    34 1   
    60    34    35 2   
    61    34    36 2   
    62    34    37 1   
    63    37    60 1   
    64    37    61 1   
@<TRIPOS>SUBSTRUCTURE
     1 VAY         1 TEMP              0 ****  ****    0 ROOT
