@<TRIPOS>MOLECULE
VAY
   61    64     1     0     0
SMALL
bcc


@<TRIPOS>ATOM
      1 C4          34.4910    -2.7760    26.0710 c5         1 VAY      -0.091400
      2 C5          33.4630    -3.1340    24.9740 c5         1 VAY      -0.079700
      3 C6          32.0550    -2.9370    25.4940 c3         1 VAY       0.182400
      4 C8          37.5540    -3.9010    27.4210 ca         1 VAY       0.759200
      5 C10         39.5610    -3.3270    26.5090 ca         1 VAY       0.717900
      6 C13         38.2070    -4.0700    28.6840 ca         1 VAY      -0.494200
      7 C15         38.2150    -5.0170    31.0440 cc         1 VAY      -0.179700
      8 C20         39.3840    -5.7230    31.1300 cd         1 VAY      -0.065000
      9 C21         40.9270    -6.9230    32.8000 c3         1 VAY       0.191800
     10 C22         40.7610    -8.3700    32.3320 ca         1 VAY       0.383600
     11 C24         41.8050   -10.1580    31.3900 ca         1 VAY       0.482500
     12 C26         39.5820   -10.4280    32.1280 ca         1 VAY      -0.088000
     13 C27         39.6010    -9.1040    32.5340 ca         1 VAY      -0.214300
     14 C25         40.7060   -10.9860    31.5360 ca         1 VAY      -0.215300
     15 BR28        43.3840   -10.8390    30.5990 br         1 VAY      -0.148200
     16 N23         41.8390    -8.9020    31.7690 nb         1 VAY      -0.678000
     17 O30         41.9990    -6.3270    32.1190 oh         1 VAY      -0.591800
     18 C29         41.2000    -6.9490    34.3070 c3         1 VAY      -0.109100
     19 C19         39.6880    -6.1300    32.4560 cd         1 VAY      -0.116300
     20 C18         38.7300    -5.7200    33.3400 cc         1 VAY      -0.113100
     21 S17         37.4580    -4.8750    32.5880 ss         1 VAY       0.012200
     22 C14         37.4830    -4.4720    29.8940 c          1 VAY       0.654300
     23 O16         36.2660    -4.3590    29.9840 o          1 VAY      -0.580100
     24 C12         39.5540    -3.7380    28.7080 ca         1 VAY       0.512200
     25 N11         40.2500    -3.3630    27.6440 nb         1 VAY      -0.748000
     26 N9          38.2800    -3.5610    26.3450 nb         1 VAY      -0.802000
     27 N7          36.2440    -4.0770    27.2640 nu         1 VAY      -0.856900
     28 C3          35.5110    -3.9130    26.0330 c5         1 VAY       0.190500
     29 C2          34.6310    -5.1170    25.6980 c5         1 VAY       0.092100
     30 O32         35.3090    -6.2780    25.3150 oh         1 VAY      -0.587800
     31 C1          33.7630    -4.5880    24.5570 c5         1 VAY       0.167100
     32 O31         34.4710    -4.5540    23.3400 oh         1 VAY      -0.591800
     33 O33         31.1340    -3.1250    24.3980 os         1 VAY      -0.565500
     34 S34         29.7690    -3.9270    24.6260 s6         1 VAY       1.541400
     35 O35         29.1960    -3.9750    23.3050 o          1 VAY      -0.607300
     36 O36         30.0500    -5.1380    25.3640 o          1 VAY      -0.607300
     37 N37         28.8030    -3.0110    25.5670 n8         1 VAY      -0.934700
     38 H1          34.9460    -1.7990    25.9160 hc         1 VAY       0.055200
     39 H2          34.0120    -2.7540    27.0550 hc         1 VAY       0.055200
     40 H3          33.6020    -2.4880    24.1030 hc         1 VAY       0.104700
     41 H4          31.9190    -1.9240    25.8750 h1         1 VAY       0.047200
     42 H5          31.8470    -3.6390    26.3060 h1         1 VAY       0.047200
     43 H6          40.1150    -3.0590    25.6150 h5         1 VAY       0.050100
     44 H7          39.9970    -5.9780    30.2770 ha         1 VAY       0.169000
     45 H8          38.6940   -11.0300    32.2660 ha         1 VAY       0.145000
     46 H9          38.7310    -8.6540    32.9910 ha         1 VAY       0.154000
     47 H10         40.7190   -12.0140    31.2070 ha         1 VAY       0.162000
     48 H11         42.6050    -7.0400    31.8660 ho         1 VAY       0.442000
     49 H12         40.3930    -7.4260    34.8640 hc         1 VAY       0.048700
     50 H13         42.1140    -7.5110    34.5060 hc         1 VAY       0.048700
     51 H14         41.3310    -5.9360    34.6870 hc         1 VAY       0.048700
     52 H15         38.7070    -5.8750    34.4090 h4         1 VAY       0.172000
     53 H16         40.0950    -3.7460    29.6470 h4         1 VAY       0.035100
     54 H17         35.7100    -4.2350    28.1090 hn         1 VAY       0.467800
     55 H18         36.2280    -3.7550    25.2290 h1         1 VAY       0.120700
     56 H19         33.9710    -5.3020    26.5620 h1         1 VAY       0.037700
     57 H20         35.8560    -6.5770    26.0480 ho         1 VAY       0.420000
     58 H21         32.8480    -5.1870    24.4580 h1         1 VAY       0.062700
     59 H22         34.7900    -5.4430    23.1510 ho         1 VAY       0.428000
     60 H23         29.0750    -2.9670    26.5430 hn         1 VAY       0.428300
     61 H24         28.5840    -2.0970    25.1870 hn         1 VAY       0.428300
@<TRIPOS>BOND
     1     1     2 1   
     2     1    28 1   
     3     1    38 1   
     4     1    39 1   
     5     2     3 1   
     6     2    31 1   
     7     2    40 1   
     8     3    33 1   
     9     3    41 1   
    10     3    42 1   
    11     4     6 ar  
    12     4    26 ar  
    13     4    27 1   
    14     5    25 ar  
    15     5    26 ar  
    16     5    43 1   
    17     6    22 1   
    18     6    24 ar  
    19     7     8 2   
    20     7    21 1   
    21     7    22 1   
    22     8    19 1   
    23     8    44 1   
    24     9    10 1   
    25     9    17 1   
    26     9    18 1   
    27     9    19 1   
    28    10    13 ar  
    29    10    16 ar  
    30    11    14 ar  
    31    11    15 1   
    32    11    16 ar  
    33    12    13 ar  
    34    12    14 ar  
    35    12    45 1   
    36    13    46 1   
    37    14    47 1   
    38    17    48 1   
    39    18    49 1   
    40    18    50 1   
    41    18    51 1   
    42    19    20 2   
    43    20    21 1   
    44    20    52 1   
    45    22    23 2   
    46    24    25 ar  
    47    24    53 1   
    48    27    28 1   
    49    27    54 1   
    50    28    29 1   
    51    28    55 1   
    52    29    30 1   
    53    29    31 1   
    54    29    56 1   
    55    30    57 1   
    56    31    32 1   
    57    31    58 1   
    58    32    59 1   
    59    33    34 1   
    60    34    35 2   
    61    34    36 2   
    62    34    37 1   
    63    37    60 1   
    64    37    61 1   
@<TRIPOS>SUBSTRUCTURE
     1 VAY         1 TEMP              0 ****  ****    0 ROOT
