@<TRIPOS>MOLECULE
VAZ
   46    45     1     0     0
SMALL
bcc


@<TRIPOS>ATOM
      1 SAQ          6.7570    -0.7390     0.3790 ss         1 VAZ      -0.316200
      2 CAY          5.1970     0.1670     0.0720 c3         1 VAZ       0.253200
      3 OAJ          5.1960     1.4310     0.6570 oh         1 VAZ      -0.597800
      4 CAZ          4.0210    -0.6870     0.5440 c3         1 VAZ      -0.023900
      5 CAU          4.0100    -2.0950    -0.1020 c          1 VAZ       0.933600
      6 OAI          3.3790    -2.2140    -1.1620 o          1 VAZ      -0.800300
      7 OAE          4.6720    -2.9480     0.5120 o          1 VAZ      -0.800300
      8 OAP          2.8680     0.0730     0.1630 os         1 VAZ      -0.396900
      9 CAV          1.6930    -0.3530     0.5640 c          1 VAZ       0.653100
     10 OAF          1.5060    -1.2950     1.2900 o          1 VAZ      -0.540000
     11 CAX          0.5830     0.5300     0.0120 c3         1 VAZ       0.070700
     12 CAN          0.7850     1.9710     0.4890 c3         1 VAZ      -0.025100
     13 SAR         -0.4750     3.1280    -0.1510 s4         1 VAZ       0.116900
     14 OAG         -0.0130     4.5000     0.2780 o          1 VAZ      -0.522200
     15 NAO         -0.6890    -0.0110     0.4030 ns         1 VAZ      -0.574900
     16 CAS         -1.7860     0.0970    -0.3720 c          1 VAZ       0.669100
     17 OAC         -1.7760     0.7460    -1.4090 o          1 VAZ      -0.634100
     18 CAL         -2.9970    -0.6540     0.1280 c3         1 VAZ      -0.153400
     19 CAK         -4.3190    -0.1170    -0.3980 c3         1 VAZ      -0.064400
     20 CB          -5.4970    -0.9310     0.1190 c3         1 VAZ      -0.052400
     21 CA          -6.8560    -0.4400    -0.3860 c3         1 VAZ       0.013500
     22 C           -7.9500    -1.4600     0.0180 c          1 VAZ       0.902600
     23 O           -8.7820    -1.1040     0.8770 o          1 VAZ      -0.844800
     24 OXT         -7.8940    -2.5740    -0.5430 o          1 VAZ      -0.844800
     25 N           -7.0870     0.9280     0.0540 n8         1 VAZ      -0.885800
     26 CAA          7.9140     0.5190    -0.2130 c3         1 VAZ      -0.027000
     27 HAA1         8.9000     0.0590    -0.2280 h1         1 VAZ       0.044700
     28 HAA2         7.6650     0.8330    -1.2270 h1         1 VAZ       0.044700
     29 HAA3         7.9430     1.3890     0.4390 h1         1 VAZ       0.044700
     30 HAJ          5.2820     1.3310     1.6130 ho         1 VAZ       0.400000
     31 HAZ          4.0550    -0.7760     1.6350 h1         1 VAZ       0.051700
     32 HAX          0.6610     0.4990    -1.0800 h1         1 VAZ       0.105700
     33 HAN1         0.6960     2.0350     1.5760 h1         1 VAZ       0.088700
     34 HAN2         1.7530     2.3690     0.1890 h1         1 VAZ       0.088700
     35 HAO         -0.7330    -0.5480     1.2560 hn         1 VAZ       0.335500
     36 HAL1        -2.8730    -1.7020    -0.1690 hc         1 VAZ       0.056700
     37 HAL2        -2.9960    -0.6570     1.2220 hc         1 VAZ       0.056700
     38 HAK1        -4.4420     0.9290    -0.1100 hc         1 VAZ       0.049700
     39 HAK2        -4.3180    -0.1400    -1.4910 hc         1 VAZ       0.049700
     40 HBC1        -5.3720    -1.9760    -0.1750 hc         1 VAZ       0.037200
     41 HBC2        -5.4970    -0.9200     1.2160 hc         1 VAZ       0.037200
     42 HA          -6.8100    -0.4290    -1.4820 h1         1 VAZ       0.038700
     43 HN1         -7.9180     1.2790    -0.4080 hn         1 VAZ       0.322300
     44 HN2         -7.3450     0.8960     1.0340 hn         1 VAZ       0.322300
     45 HAY          5.1170     0.3310    -1.0060 h2         1 VAZ       0.104700
     46 HAR         -0.0990     2.9410    -1.4500 hs         1 VAZ       0.214000
@<TRIPOS>BOND
     1     1     2 1   
     2     1    26 1   
     3     2     3 1   
     4     2     4 1   
     5     2    45 1   
     6     3    30 1   
     7     4     5 1   
     8     4     8 1   
     9     4    31 1   
    10     5     6 1   
    11     5     7 1   
    12     8     9 1   
    13     9    10 2   
    14     9    11 1   
    15    11    12 1   
    16    11    15 1   
    17    11    32 1   
    18    12    13 1   
    19    12    33 1   
    20    12    34 1   
    21    13    14 2   
    22    13    46 1   
    23    15    16 1   
    24    15    35 1   
    25    16    17 2   
    26    16    18 1   
    27    18    19 1   
    28    18    36 1   
    29    18    37 1   
    30    19    20 1   
    31    19    38 1   
    32    19    39 1   
    33    20    21 1   
    34    20    40 1   
    35    20    41 1   
    36    21    22 1   
    37    21    25 1   
    38    21    42 1   
    39    22    23 1   
    40    22    24 1   
    41    25    43 1   
    42    25    44 1   
    43    26    27 1   
    44    26    28 1   
    45    26    29 1   
@<TRIPOS>SUBSTRUCTURE
     1 VAZ         1 TEMP              0 ****  ****    0 ROOT
