@<TRIPOS>MOLECULE
VAZ
   46    45     1     0     0
SMALL
No Charge or Current Charge


@<TRIPOS>ATOM
      1 SAQ          6.8100    -0.2230     1.1690 ss         1 VAZ      -0.412000
      2 CAY          5.2950     0.2810     0.2460 c3         1 VAZ       0.324300
      3 OAJ          5.0950     1.6820     0.4620 oh         1 VAZ      -0.660000
      4 CAZ          4.0540    -0.5280     0.7050 c3         1 VAZ      -0.000700
      5 CAU          4.2250    -2.0160     0.2740 c          1 VAZ       0.723000
      6 OAI          3.8060    -2.3570    -0.8260 o          1 VAZ      -0.695000
      7 OAE          4.6430    -2.8150     1.1010 o          1 VAZ      -0.695000
      8 OAP          2.8700     0.0890     0.1080 os         1 VAZ      -0.420100
      9 CAV          1.6270    -0.3530     0.4920 c          1 VAZ       0.604100
     10 OAF          1.4320    -1.2000     1.3570 o          1 VAZ      -0.491000
     11 CAX          0.4990     0.3900    -0.2710 c3         1 VAZ       0.070700
     12 CAN          0.4560     1.8850     0.1320 c3         1 VAZ      -0.025100
     13 SAR         -0.8160     2.8470    -0.8080 s4         1 VAZ       0.143700
     14 OAG         -0.6170     4.3080    -0.4580 o          1 VAZ      -0.549000
     15 NAO         -0.8070    -0.2860    -0.0680 ns         1 VAZ      -0.507900
     16 CAS         -1.7630    -0.4650    -1.0410 c          1 VAZ       0.602100
     17 OAC         -1.5980    -0.0840    -2.1900 o          1 VAZ      -0.634100
     18 CAL         -3.0230    -1.2080    -0.5880 c3         1 VAZ      -0.153400
     19 CAK         -4.2280    -0.2470    -0.4500 c3         1 VAZ      -0.064400
     20 CB          -5.5240    -0.9630     0.0060 c3         1 VAZ      -0.052400
     21 CA          -6.7700    -0.0410     0.0990 c3         1 VAZ       0.013500
     22 C           -8.0890    -0.9130     0.2240 c          1 VAZ       0.692000
     23 O           -8.3560    -1.4160     1.3080 o          1 VAZ      -0.739500
     24 OXT         -8.8490    -0.9550    -0.7340 o          1 VAZ      -0.739500
     25 N           -6.5780     1.0220     1.1540 n8         1 VAZ      -0.996200
     26 CAA          8.1000     0.6780     0.1990 c3         1 VAZ       0.020900
     27 HAA1         9.0920     0.4600     0.6140 h1         1 VAZ       0.044700
     28 HAA2         8.0710     0.3550    -0.8500 h1         1 VAZ       0.044700
     29 HAA3         7.9190     1.7590     0.2490 h1         1 VAZ       0.044700
     30 HAJ          4.9630     1.7890     1.4270 ho         1 VAZ       0.439000
     31 HAZ          3.9940    -0.4930     1.8000 h1         1 VAZ       0.051700
     32 HAX          0.7730     0.3240    -1.3330 h1         1 VAZ       0.105700
     33 HAN1         0.2260     1.9830     1.2000 h1         1 VAZ       0.088700
     34 HAN2         1.4300     2.3530    -0.0600 h1         1 VAZ       0.088700
     35 HAO         -1.0120    -0.6720     0.8480 hn         1 VAZ       0.335500
     36 HAL1        -3.2690    -1.9690    -1.3380 hc         1 VAZ       0.056700
     37 HAL2        -2.8490    -1.6870     0.3830 hc         1 VAZ       0.056700
     38 HAK1        -3.9720     0.5430     0.2680 hc         1 VAZ       0.049700
     39 HAK2        -4.4100     0.2460    -1.4140 hc         1 VAZ       0.049700
     40 HBC1        -5.7420    -1.7660    -0.7080 hc         1 VAZ       0.037200
     41 HBC2        -5.3540    -1.4470     0.9760 hc         1 VAZ       0.037200
     42 HA          -6.8490     0.4870    -0.8620 h1         1 VAZ       0.038700
     43 HN1         -7.3940     1.6460     1.1510 hn         1 VAZ       0.377500
     44 HN2         -6.6340     0.5710     2.0760 hn         1 VAZ       0.377500
     45 HAY          5.4590     0.1040    -0.8260 h2         1 VAZ       0.104700
     46 HAR         -0.2070     2.5160    -2.0260 hs         1 VAZ       0.214000
@<TRIPOS>BOND
     1     1     2 1   
     2     1    26 1   
     3     2     3 1   
     4     2     4 1   
     5     2    45 1   
     6     3    30 1   
     7     4     5 1   
     8     4     8 1   
     9     4    31 1   
    10     5     6 1   
    11     5     7 1   
    12     8     9 1   
    13     9    10 2   
    14     9    11 1   
    15    11    12 1   
    16    11    15 1   
    17    11    32 1   
    18    12    13 1   
    19    12    33 1   
    20    12    34 1   
    21    13    14 2   
    22    13    46 1   
    23    15    16 1   
    24    15    35 1   
    25    16    17 2   
    26    16    18 1   
    27    18    19 1   
    28    18    36 1   
    29    18    37 1   
    30    19    20 1   
    31    19    38 1   
    32    19    39 1   
    33    20    21 1   
    34    20    40 1   
    35    20    41 1   
    36    21    22 1   
    37    21    25 1   
    38    21    42 1   
    39    22    23 1   
    40    22    24 1   
    41    25    43 1   
    42    25    44 1   
    43    26    27 1   
    44    26    28 1   
    45    26    29 1   
@<TRIPOS>SUBSTRUCTURE
     1 VAZ         1 TEMP              0 ****  ****    0 ROOT
