@<TRIPOS>MOLECULE
VB0
   33    35     1     0     0
SMALL
No Charge or Current Charge


@<TRIPOS>ATOM
      1 C10         21.3480     5.8300     7.0150 ca         1 VB0      -0.048000
      2 C13         23.2390     9.1890    11.1380 cx         1 VB0      -0.048600
      3 C15         22.7940    10.5330    10.6060 cx         1 VB0      -0.117400
      4 C01         19.0980     3.9250    10.1590 ca         1 VB0       0.433900
      5 C02         20.2440     5.7000     9.2830 cp         1 VB0       0.271500
      6 C03         20.7050     6.0160    10.5910 ca         1 VB0      -0.197000
      7 C04         20.2570     5.1810    11.6340 ca         1 VB0       0.447900
      8 C05         20.6370     6.4660     8.0630 cp         1 VB0      -0.188500
      9 C06         20.3120     7.8380     7.9110 ca         1 VB0       0.202000
     10 C07         20.7000     8.5510     6.7660 ca         1 VB0      -0.163000
     11 C08         21.4170     7.9070     5.7440 ca         1 VB0      -0.075000
     12 C09         21.7360     6.5450     5.8690 ca         1 VB0      -0.137000
     13 C11         21.6050     7.1150    10.8310 cg         1 VB0      -0.089000
     14 C12         22.3570     8.0530    10.9960 c1         1 VB0      -0.120100
     15 C14         23.8890     9.7680     9.9020 cx         1 VB0      -0.117400
     16 F01         19.5900     8.4790     8.8580 f          1 VB0      -0.171000
     17 N01         19.4490     4.1370    11.4280 nb         1 VB0      -0.344000
     18 N02         19.4520     4.6300     9.0800 nb         1 VB0      -0.286000
     19 N03         20.6100     5.3600    12.9350 nv         1 VB0      -1.075900
     20 H1          21.6070     4.7760     7.0990 ha         1 VB0       0.126000
     21 H2          23.8270     9.1880    12.0530 hc         1 VB0       0.089700
     22 H3          23.0760    11.4180    11.1710 hc         1 VB0       0.075200
     23 H4          21.8260    10.5980    10.1140 hc         1 VB0       0.075200
     24 H5          20.4400     9.6020     6.6700 ha         1 VB0       0.130000
     25 H6          21.7190     8.4590     4.8560 ha         1 VB0       0.115000
     26 H7          22.2870     6.0420     5.0770 ha         1 VB0       0.118000
     27 H8          23.6530     9.3220     8.9380 hc         1 VB0       0.075200
     28 H9          24.9070    10.1400     9.9930 hc         1 VB0       0.075200
     29 H10         20.0610     4.8850    13.6470 hn         1 VB0       0.504000
     30 H11         21.0310     6.2470    13.1980 hn         1 VB0       0.504000
     31 H12         18.1980     2.5220     8.9880 hn         1 VB0       0.501500
     32 H13         18.1980     2.1730    10.6830 hn         1 VB0       0.501500
     33 N04         18.2930     2.8630     9.9420 nv         1 VB0      -1.070900
@<TRIPOS>BOND
     1     1     8 ar  
     2     1    12 ar  
     3     1    20 1   
     4     2     3 1   
     5     2    14 1   
     6     2    15 1   
     7     2    21 1   
     8     3    15 1   
     9     3    22 1   
    10     3    23 1   
    11     4    17 ar  
    12     4    18 ar  
    13     4    33 1   
    14     5     6 ar  
    15     5     8 1   
    16     5    18 ar  
    17     6     7 ar  
    18     6    13 1   
    19     7    17 ar  
    20     7    19 1   
    21     8     9 ar  
    22     9    10 ar  
    23     9    16 1   
    24    10    11 ar  
    25    10    24 1   
    26    11    12 ar  
    27    11    25 1   
    28    12    26 1   
    29    13    14 3   
    30    15    27 1   
    31    15    28 1   
    32    19    29 1   
    33    19    30 1   
    34    31    33 1   
    35    32    33 1   
@<TRIPOS>SUBSTRUCTURE
     1 VB0         1 TEMP              0 ****  ****    0 ROOT
