@<TRIPOS>MOLECULE
VB0
   33    35     1     0     0
SMALL
abcg2


@<TRIPOS>ATOM
      1 C10         21.3280     5.5520     6.9190 ca         1 VB0      -0.048000
      2 C13         23.3600     9.1470    10.9160 cx         1 VB0      -0.048600
      3 C15         22.8740    10.4160    11.5740 cx         1 VB0      -0.117400
      4 C01         19.0560     4.0220    10.1450 ca         1 VB0       0.433900
      5 C02         20.2780     5.6630     9.1740 cp         1 VB0       0.271500
      6 C03         20.7440     6.0890    10.4140 ca         1 VB0      -0.197000
      7 C04         20.2430     5.3680    11.5360 ca         1 VB0       0.447900
      8 C05         20.7360     6.3130     7.9250 cp         1 VB0      -0.188500
      9 C06         20.5750     7.6700     7.6900 ca         1 VB0       0.202000
     10 C07         21.0070     8.2810     6.5290 ca         1 VB0      -0.163000
     11 C08         21.6150     7.5060     5.5530 ca         1 VB0      -0.075000
     12 C09         21.7730     6.1390     5.7450 ca         1 VB0      -0.137000
     13 C11         21.6730     7.1420    10.5850 cg         1 VB0      -0.089000
     14 C12         22.4570     8.0460    10.7530 c1         1 VB0      -0.120100
     15 C14         23.1290    10.4020    10.1080 cx         1 VB0      -0.117400
     16 F01         19.9520     8.4190     8.6090 f          1 VB0      -0.171000
     17 N01         19.4070     4.3480    11.3870 nb         1 VB0      -0.344000
     18 N02         19.4530     4.6360     9.0230 nb         1 VB0      -0.286000
     19 N03         20.6090     5.7000    12.7760 nv         1 VB0      -1.075900
     20 H1          21.4510     4.4880     7.0720 ha         1 VB0       0.126000
     21 H2          24.3960     8.8800    11.0990 hc         1 VB0       0.089700
     22 H3          23.5700    10.9350    12.2190 hc         1 VB0       0.075200
     23 H4          21.8470    10.4350    11.9140 hc         1 VB0       0.075200
     24 H5          20.8600     9.3440     6.3880 ha         1 VB0       0.130000
     25 H6          21.9610     7.9730     4.6400 ha         1 VB0       0.115000
     26 H7          22.2440     5.5320     4.9830 ha         1 VB0       0.118000
     27 H8          22.2770    10.4100     9.4400 hc         1 VB0       0.075200
     28 H9          24.0060    10.9090     9.7290 hc         1 VB0       0.075200
     29 H10         20.2660     5.1730    13.5600 hn         1 VB0       0.504000
     30 H11         21.2530     6.4520    12.9470 hn         1 VB0       0.504000
     31 H12         18.0000     2.6370     9.0860 hn         1 VB0       0.501500
     32 H13         17.9600     2.4320    10.7980 hn         1 VB0       0.501500
     33 N04         18.2010     2.9960    10.0020 nv         1 VB0      -1.070900
@<TRIPOS>BOND
     1     1     8 ar  
     2     1    12 ar  
     3     1    20 1   
     4     2     3 1   
     5     2    14 1   
     6     2    15 1   
     7     2    21 1   
     8     3    15 1   
     9     3    22 1   
    10     3    23 1   
    11     4    17 ar  
    12     4    18 ar  
    13     4    33 1   
    14     5     6 ar  
    15     5     8 1   
    16     5    18 ar  
    17     6     7 ar  
    18     6    13 1   
    19     7    17 ar  
    20     7    19 1   
    21     8     9 ar  
    22     9    10 ar  
    23     9    16 1   
    24    10    11 ar  
    25    10    24 1   
    26    11    12 ar  
    27    11    25 1   
    28    12    26 1   
    29    13    14 3   
    30    15    27 1   
    31    15    28 1   
    32    19    29 1   
    33    19    30 1   
    34    31    33 1   
    35    32    33 1   
@<TRIPOS>SUBSTRUCTURE
     1 VB0         1 TEMP              0 ****  ****    0 ROOT
