@<TRIPOS>MOLECULE
VB1
   44    43     1     0     0
SMALL
No Charge or Current Charge


@<TRIPOS>ATOM
      1 C1           7.1040     0.8110    -0.0380 c          1 VB1       0.724000
      2 C2           5.7940    -0.0850     0.0230 c3         1 VB1       0.023500
      3 C3           4.5300     0.7630    -0.2840 c3         1 VB1      -0.102400
      4 CAV         -5.1840     0.3480     0.0340 c3         1 VB1      -0.046300
      5 C4           3.2550    -0.0630    -0.5890 c3         1 VB1      -0.069400
      6 C7           2.0410     0.8200    -0.9650 c3         1 VB1      -0.153400
      7 C10          0.7970    -0.0290    -1.2560 c          1 VB1       0.606100
      8 N11         -0.1750     0.0170    -0.2820 ns         1 VB1      -0.496900
      9 C12         -1.4500    -0.7450    -0.3090 c3         1 VB1       0.031700
     10 C13         -2.6420     0.1650     0.1000 c          1 VB1       0.596100
     11 N14          5.5860    -0.8870     1.2820 n8         1 VB1      -0.994200
     12 O15          0.6600    -0.6600    -2.2950 o          1 VB1      -0.622100
     13 C16         -1.3840    -1.9920     0.6090 c3         1 VB1       0.073600
     14 S17          0.0450    -3.1370     0.2770 sh         1 VB1      -0.461800
     15 O18         -2.4960     1.2400     0.6710 o          1 VB1      -0.624100
     16 O19          7.9310     0.5750    -0.9100 o          1 VB1      -0.739000
     17 O20          7.2760     1.6600     0.8290 o          1 VB1      -0.739000
     18 N29         -3.8910    -0.3330    -0.2240 ns         1 VB1      -0.447900
     19 C31         -6.2490    -0.6810     0.5240 c          1 VB1       0.715000
     20 C33         -5.6880     1.1310    -1.2070 c3         1 VB1      -0.072400
     21 O42         -6.3900    -1.7210    -0.1070 o          1 VB1      -0.729000
     22 O43         -6.8340    -0.4510     1.5740 o          1 VB1      -0.729000
     23 H321        -3.7930     1.8910    -2.0010 hc         1 VB1       0.018367
     24 H322        -5.2160     2.8270    -2.4940 hc         1 VB1       0.018367
     25 H323        -4.5860     2.9840    -0.8400 hc         1 VB1       0.018367
     26 H331        -5.8340     0.4360    -2.0430 hc         1 VB1       0.043200
     27 H332        -6.6730     1.5550    -0.9760 hc         1 VB1       0.043200
     28 HAV         -5.0430     1.0630     0.8550 h1         1 VB1       0.064700
     29 H29         -3.9210    -1.2350    -0.6850 hn         1 VB1       0.293500
     30 H12         -1.6460    -1.0790    -1.3350 h1         1 VB1       0.089700
     31 H161        -1.3130    -1.6610     1.6540 h1         1 VB1       0.085700
     32 H162        -2.3130    -2.5680     0.5090 h1         1 VB1       0.085700
     33 H11          0.0100     0.6130     0.5160 hn         1 VB1       0.326500
     34 H17         -0.2520    -4.0340     1.2510 hs         1 VB1       0.188800
     35 H7C1         1.8420     1.5040    -0.1320 hc         1 VB1       0.052200
     36 H7C2         2.2930     1.3930    -1.8650 hc         1 VB1       0.052200
     37 H4C1         3.4640    -0.7570    -1.4130 hc         1 VB1       0.042700
     38 H4C2         2.9890    -0.6730     0.2830 hc         1 VB1       0.042700
     39 H3C1         4.3340     1.4470     0.5510 hc         1 VB1       0.040200
     40 H3C2         4.7450     1.3950    -1.1560 hc         1 VB1       0.040200
     41 H2           5.8920    -0.8110    -0.7970 h1         1 VB1       0.044700
     42 H141         5.5650    -0.2410     2.0810 hn         1 VB1       0.376500
     43 H142         4.6460    -1.2950     1.2680 hn         1 VB1       0.376500
     44 C32         -4.7610     2.2780    -1.6610 c3         1 VB1      -0.087100
@<TRIPOS>BOND
     1     1     2 1   
     2     1    16 1   
     3     1    17 1   
     4     2     3 1   
     5     2    11 1   
     6     2    41 1   
     7     3     5 1   
     8     3    39 1   
     9     3    40 1   
    10     4    18 1   
    11     4    19 1   
    12     4    20 1   
    13     4    28 1   
    14     5     6 1   
    15     5    37 1   
    16     5    38 1   
    17     6     7 1   
    18     6    35 1   
    19     6    36 1   
    20     7     8 1   
    21     7    12 2   
    22     8     9 1   
    23     8    33 1   
    24     9    10 1   
    25     9    13 1   
    26     9    30 1   
    27    10    15 2   
    28    10    18 1   
    29    11    42 1   
    30    11    43 1   
    31    13    14 1   
    32    13    31 1   
    33    13    32 1   
    34    14    34 1   
    35    18    29 1   
    36    19    21 1   
    37    19    22 1   
    38    20    26 1   
    39    20    27 1   
    40    20    44 1   
    41    23    44 1   
    42    24    44 1   
    43    25    44 1   
@<TRIPOS>SUBSTRUCTURE
     1 VB1         1 TEMP              0 ****  ****    0 ROOT
