@<TRIPOS>MOLECULE
VB1
   44    43     1     0     0
SMALL
bcc


@<TRIPOS>ATOM
      1 C1           6.9920     1.2240    -0.0260 c          1 VB1       0.934600
      2 C2           5.8960     0.2380    -0.4840 c3         1 VB1       0.023500
      3 C3           4.5430     0.7500     0.0350 c3         1 VB1      -0.102400
      4 CAV         -4.9500     0.7670    -0.2630 c3         1 VB1      -0.046300
      5 C4           3.3470    -0.0330    -0.4920 c3         1 VB1      -0.069400
      6 C7           2.0310     0.5130     0.0420 c3         1 VB1      -0.153400
      7 C10          0.8160    -0.2170    -0.4890 c          1 VB1       0.673100
      8 N11         -0.2470    -0.2060     0.3380 ns         1 VB1      -0.563900
      9 C12         -1.5260    -0.7850     0.0260 c3         1 VB1       0.031700
     10 C13         -2.6360     0.2340     0.2850 c          1 VB1       0.663100
     11 N14          6.2310    -1.1190    -0.0780 n8         1 VB1      -0.883800
     12 O15          0.7990    -0.7520    -1.5880 o          1 VB1      -0.622100
     13 C16         -1.8190    -2.0200     0.8800 c3         1 VB1       0.025700
     14 S17         -0.5630    -3.2940     0.5350 sh         1 VB1      -0.413900
     15 O18         -2.5470     1.0360     1.2030 o          1 VB1      -0.624100
     16 O19          7.0980     2.2780    -0.6850 o          1 VB1      -0.844300
     17 O20          7.6510     0.9140     0.9870 o          1 VB1      -0.844300
     18 N29         -3.6750     0.1500    -0.5490 ns         1 VB1      -0.514900
     19 C31         -5.7350    -0.0020     0.8360 c          1 VB1       0.925600
     20 C33         -5.7660     0.9030    -1.5470 c3         1 VB1      -0.072400
     21 O42         -5.2270    -1.0400     1.2920 o          1 VB1      -0.834300
     22 O43         -6.8240     0.5120     1.1590 o          1 VB1      -0.834300
     23 H321        -4.1440     1.2740    -2.9510 hc         1 VB1       0.018367
     24 H322        -5.7140     1.8500    -3.4950 hc         1 VB1       0.018367
     25 H323        -4.8360     2.7320    -2.2480 hc         1 VB1       0.018367
     26 H331        -6.0020    -0.0920    -1.9400 hc         1 VB1       0.043200
     27 H332        -6.7200     1.3600    -1.2830 hc         1 VB1       0.043200
     28 HAV         -4.7530     1.7750     0.1150 h1         1 VB1       0.064700
     29 H29         -3.6790    -0.6150    -1.2060 hn         1 VB1       0.293500
     30 H12         -1.5190    -1.0730    -1.0260 h1         1 VB1       0.089700
     31 H161        -1.7970    -1.7570     1.9380 h1         1 VB1       0.085700
     32 H162        -2.8120    -2.3990     0.6430 h1         1 VB1       0.085700
     33 H11         -0.1640     0.2580     1.2300 hn         1 VB1       0.326500
     34 H17         -1.0640    -4.2340     1.3440 hs         1 VB1       0.188800
     35 H7C1         2.0310     0.4940     1.1350 hc         1 VB1       0.052200
     36 H7C2         1.9270     1.5670    -0.2390 hc         1 VB1       0.052200
     37 H4C1         3.3470     0.0010    -1.5840 hc         1 VB1       0.042700
     38 H4C2         3.4350    -1.0880    -0.2150 hc         1 VB1       0.042700
     39 H3C1         4.5490     0.7240     1.1320 hc         1 VB1       0.040200
     40 H3C2         4.4290     1.8010    -0.2490 hc         1 VB1       0.040200
     41 H2           5.8560     0.2640    -1.5790 h1         1 VB1       0.044700
     42 H141         6.4400    -1.1120     0.9130 hn         1 VB1       0.321300
     43 H142         5.4380    -1.7350    -0.2060 hn         1 VB1       0.321300
     44 C32         -5.0750     1.7330    -2.6190 c3         1 VB1      -0.087100
@<TRIPOS>BOND
     1     1     2 1   
     2     1    16 1   
     3     1    17 1   
     4     2     3 1   
     5     2    11 1   
     6     2    41 1   
     7     3     5 1   
     8     3    39 1   
     9     3    40 1   
    10     4    18 1   
    11     4    19 1   
    12     4    20 1   
    13     4    28 1   
    14     5     6 1   
    15     5    37 1   
    16     5    38 1   
    17     6     7 1   
    18     6    35 1   
    19     6    36 1   
    20     7     8 1   
    21     7    12 2   
    22     8     9 1   
    23     8    33 1   
    24     9    10 1   
    25     9    13 1   
    26     9    30 1   
    27    10    15 2   
    28    10    18 1   
    29    11    42 1   
    30    11    43 1   
    31    13    14 1   
    32    13    31 1   
    33    13    32 1   
    34    14    34 1   
    35    18    29 1   
    36    19    21 1   
    37    19    22 1   
    38    20    26 1   
    39    20    27 1   
    40    20    44 1   
    41    23    44 1   
    42    24    44 1   
    43    25    44 1   
@<TRIPOS>SUBSTRUCTURE
     1 VB1         1 TEMP              0 ****  ****    0 ROOT
