@<TRIPOS>MOLECULE
VB2
   73    76     1     0     0
SMALL
bcc


@<TRIPOS>ATOM
      1 C10        -45.2790    31.4750    21.9060 ca         1 VB2      -0.047000
      2 C15        -44.9750    33.4230    23.3870 c          1 VB2       0.676700
      3 C17        -44.4770    35.7920    23.8290 c3         1 VB2       0.097000
      4 C20        -43.5840    35.6730    27.6290 c6         1 VB2      -0.110400
      5 C21        -42.0740    35.7490    27.4280 c6         1 VB2       0.216800
      6 C22        -42.3360    36.2520    25.0870 c6         1 VB2       0.193800
      7 C24        -41.2700    37.9140    26.5760 ca         1 VB2       0.740200
      8 C26        -40.2930    39.3540    28.0340 ca         1 VB2       0.720900
      9 C28        -40.6340    40.1290    25.9480 ca         1 VB2       0.732200
     10 C02        -42.4950    24.8380    23.2950 c6         1 VB2      -0.048000
     11 C03        -41.7630    24.0940    24.4100 c3         1 VB2      -0.083600
     12 C04        -43.2420    26.0380    23.8890 c6         1 VB2      -0.066900
     13 C05        -43.7850    26.9880    22.8330 c6         1 VB2       0.166300
     14 C07        -43.2110    28.4340    21.0050 c3         1 VB2       0.207100
     15 C08        -43.6570    29.7220    21.6480 ca         1 VB2      -0.026300
     16 C09        -44.8900    30.2840    21.3250 ca         1 VB2      -0.174000
     17 C11        -42.8390    30.3700    22.5620 ca         1 VB2      -0.153000
     18 C12        -43.2190    31.5790    23.1400 ca         1 VB2       0.169100
     19 C14        -44.4520    32.1530    22.8000 ca         1 VB2      -0.254600
     20 C18        -43.8700    36.2360    25.1660 c6         1 VB2       0.126800
     21 C19        -44.2990    35.3280    26.3220 c6         1 VB2      -0.103400
     22 C30        -40.9970    41.1200    23.7240 c3         1 VB2       0.222100
     23 C31        -41.2060    38.9070    25.5900 ca         1 VB2      -0.517600
     24 C34        -42.0690    26.3520    21.2870 c6         1 VB2       0.166300
     25 C35        -41.4700    25.3790    22.2900 c6         1 VB2      -0.066900
     26 N06        -42.7230    27.4620    21.9600 n3         1 VB2      -0.715600
     27 N16        -44.1000    34.4600    23.4100 ns         1 VB2      -0.585900
     28 N23        -41.7610    36.6690    26.3460 nh         1 VB2      -0.785300
     29 N25        -40.8100    38.1600    27.8170 nb         1 VB2      -0.826000
     30 N27        -40.1640    40.3560    27.1910 nb         1 VB2      -0.818000
     31 N29        -40.5220    41.1500    25.0800 nu         1 VB2      -0.881900
     32 O13        -42.3590    32.1060    24.0340 oh         1 VB2      -0.499100
     33 O32        -44.3610    37.5530    25.3270 oh         1 VB2      -0.599800
     34 O33        -46.1170    33.5030    23.8040 o          1 VB2      -0.575100
     35 H1         -46.2430    31.9010    21.6590 ha         1 VB2       0.146000
     36 H2         -44.1690    36.4950    23.0520 h1         1 VB2       0.070700
     37 H3         -45.5630    35.8450    23.9050 h1         1 VB2       0.070700
     38 H4         -43.9390    36.6260    28.0370 hc         1 VB2       0.053200
     39 H5         -43.8140    34.9180    28.3830 hc         1 VB2       0.053200
     40 H6         -41.6820    34.7620    27.1600 h1         1 VB2       0.069200
     41 H7         -41.5710    36.0680    28.3350 h1         1 VB2       0.069200
     42 H8         -41.9640    35.2460    24.8700 h1         1 VB2       0.057700
     43 H9         -42.0020    36.8870    24.2680 h1         1 VB2       0.057700
     44 H10        -39.9250    39.5310    29.0410 h5         1 VB2       0.040100
     45 H11        -44.1850    23.4770    23.3400 hc         1 VB2       0.032867
     46 H12        -44.0330    24.3240    21.8070 hc         1 VB2       0.032867
     47 H13        -42.9240    23.0170    22.1980 hc         1 VB2       0.032867
     48 H14        -42.4630    23.7130    25.1570 hc         1 VB2       0.032867
     49 H15        -41.2060    23.2410    24.0150 hc         1 VB2       0.032867
     50 H16        -41.0530    24.7490    24.9190 hc         1 VB2       0.032867
     51 H17        -42.5580    26.5960    24.5360 hc         1 VB2       0.047200
     52 H18        -44.0660    25.6930    24.5210 hc         1 VB2       0.047200
     53 H19        -44.2450    27.8450    23.3290 h1         1 VB2       0.031950
     54 H20        -44.5870    26.5010    22.2510 h1         1 VB2       0.031950
     55 H21        -44.0380    28.0330    20.3960 h1         1 VB2       0.040200
     56 H22        -42.3980    28.6560    20.3050 h1         1 VB2       0.040200
     57 H23        -45.5480    29.7840    20.6250 ha         1 VB2       0.137000
     58 H24        -41.8920    29.9280    22.8480 ha         1 VB2       0.165000
     59 H25        -45.3830    35.3800    26.4480 hc         1 VB2       0.059200
     60 H26        -44.0600    34.2920    26.0680 hc         1 VB2       0.059200
     61 H27        -40.7760    42.0770    23.2590 h1         1 VB2       0.038033
     62 H28        -40.5070    40.3400    23.1360 h1         1 VB2       0.038033
     63 H29        -42.0770    40.9590    23.6660 h1         1 VB2       0.038033
     64 H30        -41.6010    38.7640    24.5980 ha         1 VB2       0.149000
     65 H31        -42.7660    25.8270    20.6110 h1         1 VB2       0.031950
     66 H32        -41.2720    26.7520    20.6540 h1         1 VB2       0.031950
     67 H33        -40.9970    24.5520    21.7530 hc         1 VB2       0.047200
     68 H34        -40.6750    25.8950    22.8390 hc         1 VB2       0.047200
     69 H36        -43.2880    34.3930    22.8150 hn         1 VB2       0.312500
     70 H37        -40.1310    42.0040    25.4400 hn         1 VB2       0.451800
     71 H38        -42.7100    32.9070    24.4430 ho         1 VB2       0.434000
     72 H39        -44.1570    37.8740    26.2110 ho         1 VB2       0.420000
     73 C01        -43.4640    23.8680    22.6180 c3         1 VB2      -0.083600
@<TRIPOS>BOND
     1     1    16 ar  
     2     1    19 ar  
     3     1    35 1   
     4     2    19 1   
     5     2    27 1   
     6     2    34 2   
     7     3    20 1   
     8     3    27 1   
     9     3    36 1   
    10     3    37 1   
    11     4     5 1   
    12     4    21 1   
    13     4    38 1   
    14     4    39 1   
    15     5    28 1   
    16     5    40 1   
    17     5    41 1   
    18     6    20 1   
    19     6    28 1   
    20     6    42 1   
    21     6    43 1   
    22     7    23 ar  
    23     7    28 1   
    24     7    29 ar  
    25     8    29 ar  
    26     8    30 ar  
    27     8    44 1   
    28     9    23 ar  
    29     9    30 ar  
    30     9    31 1   
    31    10    11 1   
    32    10    12 1   
    33    10    25 1   
    34    10    73 1   
    35    11    48 1   
    36    11    49 1   
    37    11    50 1   
    38    12    13 1   
    39    12    51 1   
    40    12    52 1   
    41    13    26 1   
    42    13    53 1   
    43    13    54 1   
    44    14    15 1   
    45    14    26 1   
    46    14    55 1   
    47    14    56 1   
    48    15    16 ar  
    49    15    17 ar  
    50    16    57 1   
    51    17    18 ar  
    52    17    58 1   
    53    18    19 ar  
    54    18    32 1   
    55    20    21 1   
    56    20    33 1   
    57    21    59 1   
    58    21    60 1   
    59    22    31 1   
    60    22    61 1   
    61    22    62 1   
    62    22    63 1   
    63    23    64 1   
    64    24    25 1   
    65    24    26 1   
    66    24    65 1   
    67    24    66 1   
    68    25    67 1   
    69    25    68 1   
    70    27    69 1   
    71    31    70 1   
    72    32    71 1   
    73    33    72 1   
    74    45    73 1   
    75    46    73 1   
    76    47    73 1   
@<TRIPOS>SUBSTRUCTURE
     1 VB2         1 TEMP              0 ****  ****    0 ROOT
