@<TRIPOS>MOLECULE
VB2
   73    76     1     0     0
SMALL
No Charge or Current Charge


@<TRIPOS>ATOM
      1 C10        -45.9660    31.3120    22.1820 ca         1 VB2      -0.029000
      2 C15        -45.5630    33.7290    22.7170 c          1 VB2       0.609700
      3 C17        -44.9830    36.1420    23.2240 c3         1 VB2       0.097000
      4 C20        -45.0840    35.8120    27.1860 c6         1 VB2      -0.110400
      5 C21        -43.5560    35.6900    27.4230 c6         1 VB2       0.216800
      6 C22        -43.1190    36.1400    25.0160 c6         1 VB2       0.193800
      7 C24        -41.5200    37.0340    26.7400 ca         1 VB2       0.411900
      8 C26        -39.6550    37.0390    28.0740 ca         1 VB2       0.194900
      9 C28        -39.7040    38.5390    26.3600 ca         1 VB2       0.403900
     10 C02        -41.5690    25.6890    23.7260 c6         1 VB2      -0.048000
     11 C03        -40.3460    25.2930    24.6070 c3         1 VB2      -0.083600
     12 C04        -42.1860    27.0210    24.2450 c6         1 VB2      -0.066900
     13 C05        -43.2890    27.5720    23.3050 c6         1 VB2       0.166300
     14 C07        -43.7910    28.3710    21.0130 c3         1 VB2       0.207100
     15 C08        -44.2320    29.7680    21.4480 ca         1 VB2      -0.026300
     16 C09        -45.5700    30.0280    21.7780 ca         1 VB2      -0.156000
     17 C11        -43.2960    30.8120    21.5310 ca         1 VB2      -0.135000
     18 C12        -43.6800    32.1030    21.9350 ca         1 VB2       0.169100
     19 C14        -45.0360    32.3770    22.2670 ca         1 VB2      -0.254600
     20 C18        -44.6290    36.4100    24.7250 c6         1 VB2       0.150000
     21 C19        -45.4740    35.5420    25.7040 c6         1 VB2      -0.103400
     22 C30        -39.5460    40.3030    24.5090 c3         1 VB2       0.222100
     23 C31        -40.9650    38.0730    25.9840 ca         1 VB2      -0.369000
     24 C34        -42.2400    26.4860    21.3600 c6         1 VB2       0.166300
     25 C35        -41.1110    25.9100    22.2530 c6         1 VB2      -0.066900
     26 N06        -42.7860    27.7560    21.9140 n3         1 VB2      -0.715600
     27 N16        -44.6790    34.7800    22.7560 ns         1 VB2      -0.518900
     28 N23        -42.7940    36.5120    26.4310 nh         1 VB2      -0.785300
     29 N25        -40.8650    36.5170    27.7980 nb         1 VB2      -0.300000
     30 N27        -39.0370    38.0290    27.4020 nb         1 VB2      -0.292000
     31 N29        -39.0610    39.5600    25.6850 nu         1 VB2      -0.937100
     32 O13        -42.7070    33.0600    21.9970 oh         1 VB2      -0.538100
     33 O32        -44.8830    37.7900    25.0110 oh         1 VB2      -0.662000
     34 O33        -46.7330    33.8880    23.0360 o          1 VB2      -0.575100
     35 H1         -47.0140    31.4740    22.4290 ha         1 VB2       0.128000
     36 H2         -44.4170    36.8480    22.6020 h1         1 VB2       0.070700
     37 H3         -46.0490    36.3520    23.0690 h1         1 VB2       0.070700
     38 H4         -45.4170    36.8160    27.4820 hc         1 VB2       0.053200
     39 H5         -45.6140    35.1110    27.8450 hc         1 VB2       0.053200
     40 H6         -43.2580    34.6330    27.3460 h1         1 VB2       0.069200
     41 H7         -43.3430    36.0150    28.4530 h1         1 VB2       0.069200
     42 H8         -42.8940    35.0760    24.8460 h1         1 VB2       0.057700
     43 H9         -42.5100    36.7100    24.3000 h1         1 VB2       0.057700
     44 H10        -39.1230    36.6180    28.9270 h5         1 VB2       0.040100
     45 H11        -42.9120    24.3510    24.8650 hc         1 VB2       0.032867
     46 H12        -43.5010    24.6950    23.2390 hc         1 VB2       0.032867
     47 H13        -42.1600    23.5730    23.4680 hc         1 VB2       0.032867
     48 H14        -40.6370    25.1430    25.6540 hc         1 VB2       0.032867
     49 H15        -39.8820    24.3630    24.2550 hc         1 VB2       0.032867
     50 H16        -39.5720    26.0700    24.5900 hc         1 VB2       0.032867
     51 H17        -41.3990    27.7820    24.3410 hc         1 VB2       0.047200
     52 H18        -42.6000    26.8820    25.2530 hc         1 VB2       0.047200
     53 H19        -43.6390    28.5310    23.7160 h1         1 VB2       0.031950
     54 H20        -44.1530    26.8920    23.3120 h1         1 VB2       0.031950
     55 H21        -44.6740    27.7200    20.9390 h1         1 VB2       0.040200
     56 H22        -43.3760    28.4550    20.0000 h1         1 VB2       0.040200
     57 H23        -46.3100    29.2330    21.7240 ha         1 VB2       0.119000
     58 H24        -42.2580    30.6030    21.2820 ha         1 VB2       0.147000
     59 H25        -46.5450    35.7360    25.5570 hc         1 VB2       0.059200
     60 H26        -45.3190    34.4770    25.4870 hc         1 VB2       0.059200
     61 H27        -38.8090    41.0560    24.1980 h1         1 VB2       0.038033
     62 H28        -39.7180    39.6190    23.6660 h1         1 VB2       0.038033
     63 H29        -40.4890    40.8160    24.7400 h1         1 VB2       0.038033
     64 H30        -41.5020    38.5070    25.1500 ha         1 VB2       0.131000
     65 H31        -43.0410    25.7410    21.2530 h1         1 VB2       0.031950
     66 H32        -41.8320    26.6600    20.3540 h1         1 VB2       0.031950
     67 H33        -40.7470    24.9680    21.8210 hc         1 VB2       0.047200
     68 H34        -40.2590    26.6040    22.2300 hc         1 VB2       0.047200
     69 H36        -43.7330    34.5590    22.4630 hn         1 VB2       0.312500
     70 H37        -38.1430    39.8130    26.0570 hn         1 VB2       0.507000
     71 H38        -41.8530    32.6550    21.7350 ho         1 VB2       0.473000
     72 H39        -44.2810    37.9630    25.7730 ho         1 VB2       0.459000
     73 C01        -42.5950    24.5130    23.8280 c3         1 VB2      -0.083600
@<TRIPOS>BOND
     1     1    16 ar  
     2     1    19 ar  
     3     1    35 1   
     4     2    19 1   
     5     2    27 1   
     6     2    34 2   
     7     3    20 1   
     8     3    27 1   
     9     3    36 1   
    10     3    37 1   
    11     4     5 1   
    12     4    21 1   
    13     4    38 1   
    14     4    39 1   
    15     5    28 1   
    16     5    40 1   
    17     5    41 1   
    18     6    20 1   
    19     6    28 1   
    20     6    42 1   
    21     6    43 1   
    22     7    23 ar  
    23     7    28 1   
    24     7    29 ar  
    25     8    29 ar  
    26     8    30 ar  
    27     8    44 1   
    28     9    23 ar  
    29     9    30 ar  
    30     9    31 1   
    31    10    11 1   
    32    10    12 1   
    33    10    25 1   
    34    10    73 1   
    35    11    48 1   
    36    11    49 1   
    37    11    50 1   
    38    12    13 1   
    39    12    51 1   
    40    12    52 1   
    41    13    26 1   
    42    13    53 1   
    43    13    54 1   
    44    14    15 1   
    45    14    26 1   
    46    14    55 1   
    47    14    56 1   
    48    15    16 ar  
    49    15    17 ar  
    50    16    57 1   
    51    17    18 ar  
    52    17    58 1   
    53    18    19 ar  
    54    18    32 1   
    55    20    21 1   
    56    20    33 1   
    57    21    59 1   
    58    21    60 1   
    59    22    31 1   
    60    22    61 1   
    61    22    62 1   
    62    22    63 1   
    63    23    64 1   
    64    24    25 1   
    65    24    26 1   
    66    24    65 1   
    67    24    66 1   
    68    25    67 1   
    69    25    68 1   
    70    27    69 1   
    71    31    70 1   
    72    32    71 1   
    73    33    72 1   
    74    45    73 1   
    75    46    73 1   
    76    47    73 1   
@<TRIPOS>SUBSTRUCTURE
     1 VB2         1 TEMP              0 ****  ****    0 ROOT
