@<TRIPOS>MOLECULE
VB3
   43    44     1     0     0
SMALL
No Charge or Current Charge


@<TRIPOS>ATOM
      1 C01         14.1960   -10.3980   -71.6890 c3         1 VB3      -0.092100
      2 C02         13.6870   -11.4660   -70.6990 c3         1 VB3       0.178500
      3 C04         11.3670   -12.0260   -69.8640 c3         1 VB3       0.214100
      4 C05         10.8440   -12.6700   -71.1470 ca         1 VB3      -0.199300
      5 C06         10.5460   -11.8910   -72.2800 ca         1 VB3       0.177100
      6 C08         10.0190   -12.4760   -73.4410 ca         1 VB3      -0.165000
      7 C09          9.7850   -13.8610   -73.4800 ca         1 VB3      -0.069000
      8 C10         10.0830   -14.6500   -72.3550 ca         1 VB3      -0.160000
      9 C11         10.6070   -14.0590   -71.1920 ca         1 VB3      -0.067000
     10 C12         14.7400   -11.7170   -69.5810 c3         1 VB3      -0.103400
     11 C13         14.4590   -12.8480   -68.5400 c6         1 VB3      -0.059700
     12 C14         14.2700   -14.2500   -69.1840 c6         1 VB3      -0.072900
     13 C15         13.8220   -15.3110   -68.1370 c6         1 VB3      -0.072400
     14 C16         14.2860   -14.9830   -66.6900 c6         1 VB3      -0.074400
     15 C17         15.6480   -14.2520   -66.6860 c6         1 VB3      -0.072400
     16 C18         15.5890   -12.9040   -67.4630 c6         1 VB3      -0.072900
     17 N03         12.3990   -10.9920   -70.1380 n7         1 VB3      -0.908400
     18 O07         10.8160   -10.5660   -72.2390 oh         1 VB3      -0.574100
     19 H012        15.1580   -10.7000   -72.1200 hc         1 VB3       0.041367
     20 H013        13.4920   -10.2620   -72.5170 hc         1 VB3       0.041367
     21 H011        14.3340    -9.4310   -71.1890 hc         1 VB3       0.041367
     22 H021        13.5490   -12.3900   -71.2790 h1         1 VB3       0.068700
     23 H042        10.5130   -11.5640   -69.3490 h1         1 VB3       0.046200
     24 H041        11.7470   -12.8080   -69.1960 h1         1 VB3       0.046200
     25 H081         9.8000   -11.8610   -74.3100 ha         1 VB3       0.125000
     26 H091         9.3790   -14.3210   -74.3780 ha         1 VB3       0.110000
     27 H101         9.9020   -15.7230   -72.3830 ha         1 VB3       0.113000
     28 H111        10.8220   -14.6800   -70.3250 ha         1 VB3       0.104000
     29 H121        15.6960   -11.9370   -70.0740 hc         1 VB3       0.044200
     30 H122        14.8990   -10.7730   -69.0460 hc         1 VB3       0.044200
     31 H131        13.5330   -12.5700   -68.0210 hc         1 VB3       0.041700
     32 H141        13.5330   -14.2210   -69.9970 hc         1 VB3       0.039950
     33 H142        15.2160   -14.5660   -69.6450 hc         1 VB3       0.039950
     34 H151        12.7270   -15.4020   -68.1470 hc         1 VB3       0.038450
     35 H152        14.2100   -16.2940   -68.4380 hc         1 VB3       0.038450
     36 H161        13.5350   -14.3520   -66.1950 hc         1 VB3       0.038200
     37 H162        14.3480   -15.9070   -66.0990 hc         1 VB3       0.038200
     38 H171        16.4040   -14.9050   -67.1440 hc         1 VB3       0.038450
     39 H172        15.9810   -14.0750   -65.6550 hc         1 VB3       0.038450
     40 H182        16.5690   -12.7280   -67.9280 hc         1 VB3       0.039950
     41 H181        15.4430   -12.0780   -66.7520 hc         1 VB3       0.039950
     42 H1          12.6140   -10.5120   -69.2530 hn         1 VB3       0.427000
     43 H071        11.4320   -10.5000   -71.4500 ho         1 VB3       0.513000
@<TRIPOS>BOND
     1     1     2 1   
     2     1    19 1   
     3     1    20 1   
     4     1    21 1   
     5     2    10 1   
     6     2    17 1   
     7     2    22 1   
     8     3     4 1   
     9     3    17 1   
    10     3    23 1   
    11     3    24 1   
    12     4     5 ar  
    13     4     9 ar  
    14     5     6 ar  
    15     5    18 1   
    16     6     7 ar  
    17     6    25 1   
    18     7     8 ar  
    19     7    26 1   
    20     8     9 ar  
    21     8    27 1   
    22     9    28 1   
    23    10    11 1   
    24    10    29 1   
    25    10    30 1   
    26    11    12 1   
    27    11    16 1   
    28    11    31 1   
    29    12    13 1   
    30    12    32 1   
    31    12    33 1   
    32    13    14 1   
    33    13    34 1   
    34    13    35 1   
    35    14    15 1   
    36    14    36 1   
    37    14    37 1   
    38    15    16 1   
    39    15    38 1   
    40    15    39 1   
    41    16    40 1   
    42    16    41 1   
    43    17    42 1   
    44    18    43 1   
@<TRIPOS>SUBSTRUCTURE
     1 VB3         1 TEMP              0 ****  ****    0 ROOT
