@<TRIPOS>MOLECULE
VB3
   43    44     1     0     0
SMALL
abcg2


@<TRIPOS>ATOM
      1 C01         14.2610   -10.3910   -71.6210 c3         1 VB3      -0.092100
      2 C02         13.7370   -11.4760   -70.6860 c3         1 VB3       0.178500
      3 C04         11.4690   -12.1440   -69.8760 c3         1 VB3       0.214100
      4 C05         10.9070   -12.7540   -71.1350 ca         1 VB3      -0.199300
      5 C06         10.5340   -11.9280   -72.2070 ca         1 VB3       0.177100
      6 C08          9.9480   -12.4880   -73.3410 ca         1 VB3      -0.165000
      7 C09          9.7370   -13.8570   -73.4140 ca         1 VB3      -0.069000
      8 C10         10.1190   -14.6860   -72.3680 ca         1 VB3      -0.160000
      9 C11         10.7040   -14.1230   -71.2410 ca         1 VB3      -0.067000
     10 C12         14.7710   -11.7480   -69.5870 c3         1 VB3      -0.103400
     11 C13         14.4570   -12.8420   -68.5690 c6         1 VB3      -0.059700
     12 C14         14.2920   -14.2270   -69.1890 c6         1 VB3      -0.072900
     13 C15         13.7550   -15.2300   -68.1560 c6         1 VB3      -0.072400
     14 C16         14.2010   -14.8840   -66.7280 c6         1 VB3      -0.074400
     15 C17         15.5810   -14.2360   -66.7400 c6         1 VB3      -0.072400
     16 C18         15.5560   -12.8970   -67.4940 c6         1 VB3      -0.072900
     17 N03         12.4180   -11.0740   -70.1810 n7         1 VB3      -0.908400
     18 O07         10.7280   -10.5990   -72.1550 oh         1 VB3      -0.574100
     19 H012        15.2320   -10.6640   -72.0350 hc         1 VB3       0.041367
     20 H013        13.5780   -10.2250   -72.4540 hc         1 VB3       0.041367
     21 H011        14.3810    -9.4450   -71.0880 hc         1 VB3       0.041367
     22 H021        13.5860   -12.3830   -71.2780 h1         1 VB3       0.068700
     23 H042        10.6580   -11.6880   -69.3010 h1         1 VB3       0.046200
     24 H041        11.8830   -12.9350   -69.2440 h1         1 VB3       0.046200
     25 H081         9.6600   -11.8430   -74.1630 ha         1 VB3       0.125000
     26 H091         9.2800   -14.2770   -74.3010 ha         1 VB3       0.110000
     27 H101         9.9650   -15.7550   -72.4270 ha         1 VB3       0.113000
     28 H111        11.0020   -14.7600   -70.4140 ha         1 VB3       0.104000
     29 H121        15.7220   -11.9930   -70.0730 hc         1 VB3       0.044200
     30 H122        14.9470   -10.8070   -69.0500 hc         1 VB3       0.044200
     31 H131        13.5210   -12.5820   -68.0630 hc         1 VB3       0.041700
     32 H141        13.6250   -14.2020   -70.0540 hc         1 VB3       0.039950
     33 H142        15.2630   -14.5560   -69.5750 hc         1 VB3       0.039950
     34 H151        12.6630   -15.2550   -68.2000 hc         1 VB3       0.038450
     35 H152        14.0920   -16.2360   -68.4170 hc         1 VB3       0.038450
     36 H161        13.4860   -14.1970   -66.2660 hc         1 VB3       0.038200
     37 H162        14.2010   -15.7810   -66.1060 hc         1 VB3       0.038200
     38 H171        16.2880   -14.9230   -67.2150 hc         1 VB3       0.038450
     39 H172        15.9450   -14.0880   -65.7210 hc         1 VB3       0.038450
     40 H182        16.5300   -12.7250   -67.9620 hc         1 VB3       0.039950
     41 H181        15.4050   -12.0720   -66.7920 hc         1 VB3       0.039950
     42 H1          12.5160   -10.4550   -69.3850 hn         1 VB3       0.427000
     43 H071        11.3930   -10.4480   -71.4240 ho         1 VB3       0.513000
@<TRIPOS>BOND
     1     1     2 1   
     2     1    19 1   
     3     1    20 1   
     4     1    21 1   
     5     2    10 1   
     6     2    17 1   
     7     2    22 1   
     8     3     4 1   
     9     3    17 1   
    10     3    23 1   
    11     3    24 1   
    12     4     5 ar  
    13     4     9 ar  
    14     5     6 ar  
    15     5    18 1   
    16     6     7 ar  
    17     6    25 1   
    18     7     8 ar  
    19     7    26 1   
    20     8     9 ar  
    21     8    27 1   
    22     9    28 1   
    23    10    11 1   
    24    10    29 1   
    25    10    30 1   
    26    11    12 1   
    27    11    16 1   
    28    11    31 1   
    29    12    13 1   
    30    12    32 1   
    31    12    33 1   
    32    13    14 1   
    33    13    34 1   
    34    13    35 1   
    35    14    15 1   
    36    14    36 1   
    37    14    37 1   
    38    15    16 1   
    39    15    38 1   
    40    15    39 1   
    41    16    40 1   
    42    16    41 1   
    43    17    42 1   
    44    18    43 1   
@<TRIPOS>SUBSTRUCTURE
     1 VB3         1 TEMP              0 ****  ****    0 ROOT
