@<TRIPOS>MOLECULE
VB5
   73    76     1     0     0
SMALL
No Charge or Current Charge


@<TRIPOS>ATOM
      1 C10         14.0110   -24.1090   -14.2840 ca         1 VB5      -0.027000
      2 C15         12.7300   -22.8350   -12.5460 c          1 VB5       0.609700
      3 C17         11.5660   -21.4240   -10.7900 c3         1 VB5       0.065000
      4 C20          8.7120   -20.0170   -13.1680 c6         1 VB5      -0.105400
      5 C21          9.3670   -18.6490   -13.4810 c6         1 VB5       0.205800
      6 C22         11.1610   -19.0850   -11.8110 c6         1 VB5       0.181800
      7 C24         10.2620   -16.7340   -12.1260 ca         1 VB5       0.410900
      8 C26         11.6090   -14.9310   -11.6860 ca         1 VB5       0.193900
      9 C28          9.3960   -14.5090   -12.0330 ca         1 VB5       0.404900
     10 C02         21.2690   -24.8290   -14.7340 c6         1 VB5      -0.047000
     11 C03         22.5750   -24.6430   -13.9050 c3         1 VB5      -0.083100
     12 C04         21.1140   -23.6550   -15.7470 c6         1 VB5      -0.067400
     13 C05         19.7450   -23.6750   -16.4750 c6         1 VB5       0.170800
     14 C07         17.2970   -23.5740   -16.1990 c3         1 VB5       0.211100
     15 C08         16.1200   -23.3630   -15.2480 ca         1 VB5      -0.026300
     16 C09         15.0870   -24.3090   -15.1620 ca         1 VB5      -0.158000
     17 C11         16.0580   -22.2150   -14.4410 ca         1 VB5      -0.136000
     18 C12         14.9850   -22.0040   -13.5560 ca         1 VB5       0.168100
     19 C14         13.9350   -22.9580   -13.4630 ca         1 VB5      -0.253600
     20 C18         10.5050   -20.4320   -11.3720 c6         1 VB5       0.144000
     21 C19          9.7400   -21.0300   -12.5910 c6         1 VB5      -0.059400
     22 C30          6.9580   -13.8040   -12.3830 c3         1 VB5       0.223100
     23 C31          9.1630   -15.8720   -12.2210 ca         1 VB5      -0.361000
     24 C34         18.6890   -24.8070   -14.5600 c6         1 VB5       0.170800
     25 C35         20.0330   -24.8150   -13.7860 c6         1 VB5      -0.067400
     26 N06         18.6090   -23.6620   -15.5130 n3         1 VB5      -0.724600
     27 N16         12.6730   -21.7490   -11.7060 ns         1 VB5      -0.518900
     28 N23         10.1100   -18.1280   -12.2960 nh         1 VB5      -0.751300
     29 N25         11.4930   -16.2630   -11.8500 nb         1 VB5      -0.310000
     30 N27         10.6160   -14.0250   -11.7660 nb         1 VB5      -0.291000
     31 N29          8.3850   -13.5680   -12.1030 nu         1 VB5      -0.937100
     32 O13         14.9990   -20.8600   -12.8100 oh         1 VB5      -0.539100
     33 O32          9.5560   -20.1400   -10.3380 oh         1 VB5      -0.653000
     34 O33         11.8340   -23.6680   -12.5480 o          1 VB5      -0.576100
     35 H1          13.2300   -24.8670   -14.2460 ha         1 VB5       0.129000
     36 H2          11.0600   -22.3500   -10.4890 h1         1 VB5       0.064200
     37 H3          11.9990   -20.9790    -9.8840 h1         1 VB5       0.064200
     38 H4           7.8860   -19.8730   -12.4590 hc         1 VB5       0.056700
     39 H5           8.2600   -20.4250   -14.0820 hc         1 VB5       0.056700
     40 H6          10.0590   -18.7660   -14.3280 h1         1 VB5       0.055200
     41 H7           8.5830   -17.9500   -13.8040 h1         1 VB5       0.055200
     42 H8          11.9020   -19.2700   -12.6030 h1         1 VB5       0.068700
     43 H9          11.7040   -18.6720   -10.9480 h1         1 VB5       0.068700
     44 H10         12.6040   -14.5480   -11.4670 h5         1 VB5       0.037100
     45 H11         21.5140   -27.0270   -14.7630 hc         1 VB5       0.032867
     46 H12         20.5210   -26.4280   -16.0910 hc         1 VB5       0.032867
     47 H13         22.2710   -26.2140   -16.1380 hc         1 VB5       0.032867
     48 H14         22.7040   -25.4500   -13.1730 hc         1 VB5       0.032867
     49 H15         23.4630   -24.6360   -14.5490 hc         1 VB5       0.032867
     50 H16         22.5660   -23.6970   -13.3500 hc         1 VB5       0.032867
     51 H17         21.9240   -23.6820   -16.4890 hc         1 VB5       0.046700
     52 H18         21.2150   -22.6950   -15.2210 hc         1 VB5       0.046700
     53 H19         19.6900   -22.7960   -17.1330 h1         1 VB5       0.031200
     54 H20         19.6860   -24.5610   -17.1240 h1         1 VB5       0.031200
     55 H21         17.3070   -22.7340   -16.9060 h1         1 VB5       0.041200
     56 H22         17.1240   -24.4830   -16.7920 h1         1 VB5       0.041200
     57 H23         15.1170   -25.2060   -15.7770 ha         1 VB5       0.119000
     58 H24         16.8630   -21.4870   -14.5080 ha         1 VB5       0.147000
     59 H25          9.2300   -21.9590   -12.3030 hc         1 VB5       0.056700
     60 H26         10.4520   -21.2990   -13.3830 hc         1 VB5       0.056700
     61 H27          6.4030   -12.8560   -12.3740 h1         1 VB5       0.037700
     62 H28          6.8320   -14.2700   -13.3700 h1         1 VB5       0.037700
     63 H29          6.5220   -14.4680   -11.6240 h1         1 VB5       0.037700
     64 H30          8.1690   -16.2540   -12.4180 ha         1 VB5       0.128000
     65 H31         17.8740   -24.7510   -13.8240 h1         1 VB5       0.031200
     66 H32         18.5670   -25.7590   -15.0960 h1         1 VB5       0.031200
     67 H33         20.0610   -25.6800   -13.1110 hc         1 VB5       0.046700
     68 H34         20.0700   -23.9250   -13.1430 hc         1 VB5       0.046700
     69 H36         13.4660   -21.1180   -11.7630 hn         1 VB5       0.313500
     70 H37          8.6820   -12.6020   -11.9450 hn         1 VB5       0.508000
     71 H38         15.8110   -20.3540   -13.0280 ho         1 VB5       0.474000
     72 H39          9.1940   -19.2640   -10.6070 ho         1 VB5       0.454000
     73 C01         21.3980   -26.2000   -15.4740 c3         1 VB5      -0.083100
@<TRIPOS>BOND
     1     1    16 ar  
     2     1    19 ar  
     3     1    35 1   
     4     2    19 1   
     5     2    27 1   
     6     2    34 2   
     7     3    20 1   
     8     3    27 1   
     9     3    36 1   
    10     3    37 1   
    11     4     5 1   
    12     4    21 1   
    13     4    38 1   
    14     4    39 1   
    15     5    28 1   
    16     5    40 1   
    17     5    41 1   
    18     6    20 1   
    19     6    28 1   
    20     6    42 1   
    21     6    43 1   
    22     7    23 ar  
    23     7    28 1   
    24     7    29 ar  
    25     8    29 ar  
    26     8    30 ar  
    27     8    44 1   
    28     9    23 ar  
    29     9    30 ar  
    30     9    31 1   
    31    10    11 1   
    32    10    12 1   
    33    10    25 1   
    34    10    73 1   
    35    11    48 1   
    36    11    49 1   
    37    11    50 1   
    38    12    13 1   
    39    12    51 1   
    40    12    52 1   
    41    13    26 1   
    42    13    53 1   
    43    13    54 1   
    44    14    15 1   
    45    14    26 1   
    46    14    55 1   
    47    14    56 1   
    48    15    16 ar  
    49    15    17 ar  
    50    16    57 1   
    51    17    18 ar  
    52    17    58 1   
    53    18    19 ar  
    54    18    32 1   
    55    20    21 1   
    56    20    33 1   
    57    21    59 1   
    58    21    60 1   
    59    22    31 1   
    60    22    61 1   
    61    22    62 1   
    62    22    63 1   
    63    23    64 1   
    64    24    25 1   
    65    24    26 1   
    66    24    65 1   
    67    24    66 1   
    68    25    67 1   
    69    25    68 1   
    70    27    69 1   
    71    31    70 1   
    72    32    71 1   
    73    33    72 1   
    74    45    73 1   
    75    46    73 1   
    76    47    73 1   
@<TRIPOS>SUBSTRUCTURE
     1 VB5         1 TEMP              0 ****  ****    0 ROOT
