@<TRIPOS>MOLECULE
VB5
   73    76     1     0     0
SMALL
bcc


@<TRIPOS>ATOM
      1 C10         13.7680   -24.9310   -13.6320 ca         1 VB5      -0.045000
      2 C15         12.3310   -23.0660   -12.8880 c          1 VB5       0.676700
      3 C17         11.4430   -21.3870   -11.3200 c3         1 VB5       0.065000
      4 C20          9.6930   -18.9900   -13.8580 c6         1 VB5      -0.105400
      5 C21         10.7920   -17.9370   -13.8140 c6         1 VB5       0.205800
      6 C22         11.8550   -18.9610   -11.9190 c6         1 VB5       0.181800
      7 C24         10.6930   -16.8370   -11.6200 ca         1 VB5       0.739200
      8 C26         10.5640   -15.9550    -9.5330 ca         1 VB5       0.719900
      9 C28          9.3220   -14.9470   -11.1180 ca         1 VB5       0.733200
     10 C02         20.9640   -23.8610   -14.9380 c6         1 VB5      -0.047000
     11 C03         21.9690   -22.7210   -14.7960 c3         1 VB5      -0.083100
     12 C04         20.3470   -23.8280   -16.3410 c6         1 VB5      -0.067400
     13 C05         19.1560   -24.7630   -16.4940 c6         1 VB5       0.170800
     14 C07         16.9270   -25.2200   -15.7030 c3         1 VB5       0.211100
     15 C08         15.7530   -24.6440   -14.9520 ca         1 VB5      -0.026300
     16 C09         14.8610   -25.4750   -14.2790 ca         1 VB5      -0.176000
     17 C11         15.5270   -23.2760   -14.9600 ca         1 VB5      -0.154000
     18 C12         14.4350   -22.7210   -14.2970 ca         1 VB5       0.168100
     19 C14         13.5460   -23.5550   -13.6040 ca         1 VB5      -0.253600
     20 C18         10.8170   -20.0920   -11.8670 c6         1 VB5       0.120800
     21 C19         10.2020   -20.2960   -13.2510 c6         1 VB5      -0.059400
     22 C30          7.8840   -13.7840   -12.7420 c3         1 VB5       0.223100
     23 C31          9.7880   -15.8660   -12.0610 ca         1 VB5      -0.509600
     24 C34         18.6540   -24.6020   -14.1580 c6         1 VB5       0.170800
     25 C35         19.8310   -23.6690   -13.9220 c6         1 VB5      -0.067400
     26 N06         18.1370   -24.4540   -15.5070 n3         1 VB5      -0.724600
     27 N16         12.5020   -21.9500   -12.1320 ns         1 VB5      -0.585900
     28 N23         11.2620   -17.7500   -12.4530 nh         1 VB5      -0.751300
     29 N25         11.0710   -16.8760   -10.3280 nb         1 VB5      -0.836000
     30 N27          9.7220   -14.9890    -9.8310 nb         1 VB5      -0.817000
     31 N29          8.4480   -13.9770   -11.4330 nu         1 VB5      -0.881900
     32 O13         14.2950   -21.3850   -14.4000 oh         1 VB5      -0.500100
     33 O32          9.7570   -19.7320   -11.0010 oh         1 VB5      -0.590800
     34 O33         11.2620   -23.6440   -12.9890 o          1 VB5      -0.576100
     35 H1          13.0770   -25.5830   -13.1130 ha         1 VB5       0.147000
     36 H2          10.6540   -22.1280   -11.2010 h1         1 VB5       0.064200
     37 H3          11.8530   -21.1870   -10.3260 h1         1 VB5       0.064200
     38 H4           8.8130   -18.6300   -13.3210 hc         1 VB5       0.056700
     39 H5           9.3870   -19.1580   -14.8930 hc         1 VB5       0.056700
     40 H6          11.6460   -18.2750   -14.4080 h1         1 VB5       0.055200
     41 H7          10.4760   -16.9930   -14.2510 h1         1 VB5       0.055200
     42 H8          12.6910   -19.2440   -12.5660 h1         1 VB5       0.068700
     43 H9          12.2670   -18.7690   -10.9290 h1         1 VB5       0.068700
     44 H10         10.8840   -16.0010    -8.4950 h5         1 VB5       0.037100
     45 H11         22.1500   -25.1990   -13.7060 hc         1 VB5       0.032867
     46 H12         21.0330   -26.0510   -14.7640 hc         1 VB5       0.032867
     47 H13         22.4880   -25.3240   -15.4330 hc         1 VB5       0.032867
     48 H14         22.4110   -22.7070   -13.7970 hc         1 VB5       0.032867
     49 H15         22.7840   -22.8210   -15.5170 hc         1 VB5       0.032867
     50 H16         21.4940   -21.7520   -14.9640 hc         1 VB5       0.032867
     51 H17         21.1040   -24.0770   -17.0910 hc         1 VB5       0.046700
     52 H18         20.0100   -22.8090   -16.5590 hc         1 VB5       0.046700
     53 H19         18.7250   -24.6390   -17.4910 h1         1 VB5       0.031200
     54 H20         19.4820   -25.8150   -16.4260 h1         1 VB5       0.031200
     55 H21         16.6880   -25.2130   -16.7720 h1         1 VB5       0.041200
     56 H22         17.0510   -26.2800   -15.4260 h1         1 VB5       0.041200
     57 H23         15.0240   -26.5450   -14.2600 ha         1 VB5       0.137000
     58 H24         16.2100   -22.6200   -15.4850 ha         1 VB5       0.165000
     59 H25          9.3970   -21.0340   -13.1910 hc         1 VB5       0.056700
     60 H26         10.9630   -20.7110   -13.9170 hc         1 VB5       0.056700
     61 H27          7.2160   -12.9280   -12.7090 h1         1 VB5       0.037700
     62 H28          8.6520   -13.5840   -13.4920 h1         1 VB5       0.037700
     63 H29          7.3070   -14.6510   -13.0730 h1         1 VB5       0.037700
     64 H30          9.4410   -15.8210   -13.0810 ha         1 VB5       0.146000
     65 H31         17.8610   -24.3640   -13.4470 h1         1 VB5       0.031200
     66 H32         18.9440   -25.6490   -13.9600 h1         1 VB5       0.031200
     67 H33         20.2090   -23.8100   -12.9050 hc         1 VB5       0.046700
     68 H34         19.4680   -22.6370   -13.9840 hc         1 VB5       0.046700
     69 H36         13.4450   -21.7130   -11.8610 hn         1 VB5       0.313500
     70 H37          8.1560   -13.3740   -10.6820 hn         1 VB5       0.452800
     71 H38         13.4850   -21.0800   -13.9740 ho         1 VB5       0.435000
     72 H39         10.1260   -19.3930   -10.1770 ho         1 VB5       0.415000
     73 C01         21.6920   -25.1850   -14.6980 c3         1 VB5      -0.083100
@<TRIPOS>BOND
     1     1    16 ar  
     2     1    19 ar  
     3     1    35 1   
     4     2    19 1   
     5     2    27 1   
     6     2    34 2   
     7     3    20 1   
     8     3    27 1   
     9     3    36 1   
    10     3    37 1   
    11     4     5 1   
    12     4    21 1   
    13     4    38 1   
    14     4    39 1   
    15     5    28 1   
    16     5    40 1   
    17     5    41 1   
    18     6    20 1   
    19     6    28 1   
    20     6    42 1   
    21     6    43 1   
    22     7    23 ar  
    23     7    28 1   
    24     7    29 ar  
    25     8    29 ar  
    26     8    30 ar  
    27     8    44 1   
    28     9    23 ar  
    29     9    30 ar  
    30     9    31 1   
    31    10    11 1   
    32    10    12 1   
    33    10    25 1   
    34    10    73 1   
    35    11    48 1   
    36    11    49 1   
    37    11    50 1   
    38    12    13 1   
    39    12    51 1   
    40    12    52 1   
    41    13    26 1   
    42    13    53 1   
    43    13    54 1   
    44    14    15 1   
    45    14    26 1   
    46    14    55 1   
    47    14    56 1   
    48    15    16 ar  
    49    15    17 ar  
    50    16    57 1   
    51    17    18 ar  
    52    17    58 1   
    53    18    19 ar  
    54    18    32 1   
    55    20    21 1   
    56    20    33 1   
    57    21    59 1   
    58    21    60 1   
    59    22    31 1   
    60    22    61 1   
    61    22    62 1   
    62    22    63 1   
    63    23    64 1   
    64    24    25 1   
    65    24    26 1   
    66    24    65 1   
    67    24    66 1   
    68    25    67 1   
    69    25    68 1   
    70    27    69 1   
    71    31    70 1   
    72    32    71 1   
    73    33    72 1   
    74    45    73 1   
    75    46    73 1   
    76    47    73 1   
@<TRIPOS>SUBSTRUCTURE
     1 VB5         1 TEMP              0 ****  ****    0 ROOT
