@<TRIPOS>MOLECULE
VB6
  106   111     1     0     0
SMALL
No Charge or Current Charge


@<TRIPOS>ATOM
      1 O01        113.8570    89.2820   121.3210 o          1 VB6      -0.584100
      2 C02        113.1530    88.6590   120.5380 c          1 VB6       0.577100
      3 C03        111.8670    87.8940   120.9780 c3         1 VB6       0.037700
      4 N04        111.7800    86.4990   120.4140 n          1 VB6      -0.391800
      5 C05        110.6060    85.9310   119.8340 c          1 VB6       0.597100
      6 C06        109.4320    86.8260   119.3030 c3         1 VB6       0.046700
      7 N07        109.3870    86.7800   117.8270 ns         1 VB6      -0.487900
      8 C08        110.4350    87.1330   117.0030 c          1 VB6       0.576100
      9 C09        110.1010    87.1210   115.4680 c3         1 VB6       0.127500
     10 N10        109.3160    88.3130   114.9850 n7         1 VB6      -0.892400
     11 C11        109.9020    89.6650   115.1570 c3         1 VB6       0.226100
     12 C12        111.3510    86.8920   114.5700 c3         1 VB6      -0.060400
     13 C13        112.0780    85.5370   114.7730 c3         1 VB6      -0.083400
     14 C14        111.2280    84.3030   114.4050 c3         1 VB6       0.150800
     15 N15        112.0020    83.0570   114.5350 n8         1 VB6      -0.985200
     16 O16        111.5340    87.4200   117.4590 o          1 VB6      -0.615100
     17 C17        108.0680    86.3710   119.8740 c3         1 VB6      -0.090400
     18 C18        106.9310    87.3960   119.6540 c3         1 VB6      -0.083400
     19 C19        105.5690    86.9120   120.2060 c3         1 VB6      -0.067400
     20 C20        104.4410    87.9660   120.1300 c3         1 VB6       0.148800
     21 N21        104.0630    88.2890   118.7410 n8         1 VB6      -0.995200
     22 O22        110.5400    84.7120   119.6910 o          1 VB6      -0.604100
     23 C23        112.9120    85.5920   120.7320 c3         1 VB6       0.080300
     24 C24        111.6980    87.8890   122.5220 c3         1 VB6      -0.012200
     25 C25        110.3620    87.3630   122.9780 cc         1 VB6      -0.133400
     26 C26        110.0780    86.1060   123.5030 cd         1 VB6      -0.149100
     27 N27        108.7010    86.0260   123.8260 na         1 VB6      -0.230700
     28 C28        108.1600    87.2530   123.4890 ca         1 VB6      -0.051200
     29 C29        109.1190    88.0780   122.9730 ca         1 VB6      -0.099800
     30 C30        108.8260    89.3840   122.5550 ca         1 VB6      -0.058000
     31 C31        107.4930    89.8320   122.6700 ca         1 VB6      -0.154000
     32 C32        106.4970    88.9780   123.2000 ca         1 VB6      -0.103000
     33 C33        106.8290    87.6720   123.6200 ca         1 VB6      -0.132000
     34 N34        113.4990    88.5200   119.2110 ns         1 VB6      -0.491900
     35 C35        114.6870    89.1100   118.5840 c3         1 VB6       0.148300
     36 C36        114.6520    90.6470   118.5230 ca         1 VB6      -0.041300
     37 C37        115.5320    91.4450   119.3200 cp         1 VB6       0.021000
     38 C38        116.6110    90.8660   120.1780 cp         1 VB6      -0.090000
     39 C39        117.6630    90.1050   119.6180 ca         1 VB6      -0.119500
     40 C40        118.6930    89.5860   120.4210 ca         1 VB6      -0.093000
     41 C41        118.7100    89.8220   121.8160 ca         1 VB6      -0.122600
     42 C42        119.8240    89.2630   122.6890 c          1 VB6       0.712600
     43 O43        120.7020    88.5930   122.1630 o          1 VB6      -0.720500
     44 O44        119.8060    89.5020   123.8890 o          1 VB6      -0.720500
     45 C45        117.6680    90.5980   122.3770 ca         1 VB6      -0.093000
     46 C46        116.6410    91.1150   121.5680 ca         1 VB6      -0.119500
     47 C47        115.4010    92.8540   119.2800 ca         1 VB6      -0.083000
     48 C48        114.4550    93.4750   118.4540 ca         1 VB6      -0.128000
     49 C49        113.6260    92.6940   117.6400 ca         1 VB6      -0.076000
     50 C50        113.7180    91.2920   117.6700 ca         1 VB6      -0.118000
     51 S51        112.6680    90.3600   116.5480 ss         1 VB6      -0.168300
     52 C52        111.0450    90.4700   117.3350 ca         1 VB6       0.485300
     53 C53        109.8700    90.1190   116.6160 ca         1 VB6      -0.162300
     54 C54        108.6270    90.2200   117.2730 ca         1 VB6      -0.075000
     55 C55        108.6040    90.6510   118.6060 ca         1 VB6      -0.188000
     56 C56        109.8100    90.9760   119.2380 ca         1 VB6       0.343900
     57 N57        111.0050    90.8850   118.6250 nb         1 VB6      -0.662000
     58 H1         111.0680    88.5180   120.5790 h1         1 VB6       0.068700
     59 H2         109.5770    87.8670   119.5920 h1         1 VB6       0.072700
     60 H3         108.5160    86.5290   117.3770 hn         1 VB6       0.317500
     61 H4         109.4580    86.2430   115.3250 h1         1 VB6       0.048700
     62 H5         108.3940    88.3150   115.4380 hn         1 VB6       0.421000
     63 H7         110.9140    89.7060   114.7350 h1         1 VB6       0.072700
     64 H8         109.3140    90.3920   114.5780 h1         1 VB6       0.072700
     65 H9         112.0720    87.6990   114.7450 hc         1 VB6       0.054700
     66 H10        111.0510    86.9690   113.5170 hc         1 VB6       0.054700
     67 H11        112.9830    85.5400   114.1520 hc         1 VB6       0.061200
     68 H12        112.4170    85.4480   115.8120 hc         1 VB6       0.061200
     69 H13        110.3550    84.2350   115.0680 h1         1 VB6       0.019700
     70 H14        110.8750    84.3890   113.3680 h1         1 VB6       0.019700
     71 H15        111.4190    82.2680   114.2300 hn         1 VB6       0.386000
     72 H16        112.7700    83.0680   113.8540 hn         1 VB6       0.386000
     73 H18        107.7880    85.4050   119.4330 hc         1 VB6       0.060200
     74 H19        108.1780    86.1970   120.9490 hc         1 VB6       0.060200
     75 H20        107.2030    88.3380   120.1460 hc         1 VB6       0.047200
     76 H21        106.8330    87.6130   118.5830 hc         1 VB6       0.047200
     77 H22        105.2570    86.0070   119.6700 hc         1 VB6       0.039700
     78 H23        105.6940    86.6220   121.2550 hc         1 VB6       0.039700
     79 H24        103.5520    87.5810   120.6490 h1         1 VB6       0.026700
     80 H25        104.7620    88.8870   120.6360 h1         1 VB6       0.026700
     81 H26        103.3610    89.0390   118.7520 hn         1 VB6       0.388500
     82 H27        104.8680    88.7160   118.2710 hn         1 VB6       0.388500
     83 H29        113.7640    86.1500   121.1420 h1         1 VB6       0.048700
     84 H30        112.5930    84.8470   121.4720 h1         1 VB6       0.048700
     85 H31        113.2390    85.0760   119.8200 h1         1 VB6       0.048700
     86 H32        112.5060    87.3070   122.9810 hc         1 VB6       0.074700
     87 H33        111.8120    88.9120   122.9000 hc         1 VB6       0.074700
     88 H34        110.7530    85.2710   123.6730 h4         1 VB6       0.220000
     89 H35        108.2110    85.2340   124.2310 hn         1 VB6       0.348000
     90 H36        109.6030    90.0330   122.1630 ha         1 VB6       0.123000
     91 H37        107.2320    90.8380   122.3530 ha         1 VB6       0.107000
     92 H38        105.4720    89.3300   123.2870 ha         1 VB6       0.102000
     93 H39        106.0710    87.0100   124.0300 ha         1 VB6       0.108000
     94 H40        112.8370    88.0170   118.6200 hn         1 VB6       0.353500
     95 H41        114.7770    88.7110   117.5650 h1         1 VB6       0.072200
     96 H42        115.5620    88.7560   119.1380 h1         1 VB6       0.072200
     97 H43        117.6810    89.9200   118.5460 ha         1 VB6       0.089500
     98 H44        119.4820    89.0010   119.9540 ha         1 VB6       0.127000
     99 H46        117.6510    90.8050   123.4450 ha         1 VB6       0.127000
    100 H47        115.8520    91.7080   122.0240 ha         1 VB6       0.089500
    101 H48        116.0610    93.4690   119.8880 ha         1 VB6       0.122000
    102 H49        114.3780    94.5590   118.4310 ha         1 VB6       0.105000
    103 H50        112.9090    93.1790   116.9820 ha         1 VB6       0.109000
    104 H51        107.6980    89.9770   116.7610 ha         1 VB6       0.105000
    105 H52        107.6650    90.7450   119.1440 ha         1 VB6       0.117000
    106 H53        109.8210    91.3280   120.2680 h4         1 VB6       0.018100
@<TRIPOS>BOND
     1     1     2 2   
     2     2     3 1   
     3     2    34 1   
     4     3     4 1   
     5     3    24 1   
     6     3    58 1   
     7     4     5 1   
     8     4    23 1   
     9     5     6 1   
    10     5    22 2   
    11     6     7 1   
    12     6    17 1   
    13     6    59 1   
    14     7     8 1   
    15     7    60 1   
    16     8     9 1   
    17     8    16 2   
    18     9    10 1   
    19     9    12 1   
    20     9    61 1   
    21    10    11 1   
    22    10    62 1   
    23    11    53 1   
    24    11    63 1   
    25    11    64 1   
    26    12    13 1   
    27    12    65 1   
    28    12    66 1   
    29    13    14 1   
    30    13    67 1   
    31    13    68 1   
    32    14    15 1   
    33    14    69 1   
    34    14    70 1   
    35    15    71 1   
    36    15    72 1   
    37    17    18 1   
    38    17    73 1   
    39    17    74 1   
    40    18    19 1   
    41    18    75 1   
    42    18    76 1   
    43    19    20 1   
    44    19    77 1   
    45    19    78 1   
    46    20    21 1   
    47    20    79 1   
    48    20    80 1   
    49    21    81 1   
    50    21    82 1   
    51    23    83 1   
    52    23    84 1   
    53    23    85 1   
    54    24    25 1   
    55    24    86 1   
    56    24    87 1   
    57    25    26 2   
    58    25    29 1   
    59    26    27 1   
    60    26    88 1   
    61    27    28 1   
    62    27    89 1   
    63    28    29 ar  
    64    28    33 ar  
    65    29    30 ar  
    66    30    31 ar  
    67    30    90 1   
    68    31    32 ar  
    69    31    91 1   
    70    32    33 ar  
    71    32    92 1   
    72    33    93 1   
    73    34    35 1   
    74    34    94 1   
    75    35    36 1   
    76    35    95 1   
    77    35    96 1   
    78    36    37 ar  
    79    36    50 ar  
    80    37    38 1   
    81    37    47 ar  
    82    38    39 ar  
    83    38    46 ar  
    84    39    40 ar  
    85    39    97 1   
    86    40    41 ar  
    87    40    98 1   
    88    41    42 1   
    89    41    45 ar  
    90    42    43 1   
    91    42    44 1   
    92    45    46 ar  
    93    45    99 1   
    94    46   100 1   
    95    47    48 ar  
    96    47   101 1   
    97    48    49 ar  
    98    48   102 1   
    99    49    50 ar  
   100    49   103 1   
   101    50    51 1   
   102    51    52 1   
   103    52    53 ar  
   104    52    57 ar  
   105    53    54 ar  
   106    54    55 ar  
   107    54   104 1   
   108    55    56 ar  
   109    55   105 1   
   110    56    57 ar  
   111    56   106 1   
@<TRIPOS>SUBSTRUCTURE
     1 VB6         1 TEMP              0 ****  ****    0 ROOT
