@<TRIPOS>MOLECULE
VB6
  106   111     1     0     0
SMALL
abcg2


@<TRIPOS>ATOM
      1 O01        113.8890    89.1610   121.3330 o          1 VB6      -0.584100
      2 C02        113.1380    88.6810   120.4980 c          1 VB6       0.577100
      3 C03        111.8270    87.9780   120.8980 c3         1 VB6       0.037700
      4 N04        111.7870    86.6310   120.3570 n          1 VB6      -0.391800
      5 C05        110.8470    86.1070   119.5380 c          1 VB6       0.597100
      6 C06        109.6120    86.9200   119.1420 c3         1 VB6       0.046700
      7 N07        109.4510    86.8500   117.7060 ns         1 VB6      -0.487900
      8 C08        110.4120    87.2030   116.8520 c          1 VB6       0.576100
      9 C09        110.0490    87.1550   115.3690 c3         1 VB6       0.127500
     10 N10        109.5500    88.4360   114.8830 n7         1 VB6      -0.892400
     11 C11        110.2590    89.6380   115.2600 c3         1 VB6       0.226100
     12 C12        111.2280    86.6660   114.5330 c3         1 VB6      -0.060400
     13 C13        111.7890    85.3060   114.9420 c3         1 VB6      -0.083400
     14 C14        110.7540    84.1900   114.9800 c3         1 VB6       0.150800
     15 N15        111.3990    82.9080   115.2220 n8         1 VB6      -0.985200
     16 O16        111.5150    87.5900   117.2260 o          1 VB6      -0.615100
     17 C17        108.3710    86.3170   119.8000 c3         1 VB6      -0.090400
     18 C18        107.1390    87.2120   119.6860 c3         1 VB6      -0.083400
     19 C19        105.8560    86.4360   119.9580 c3         1 VB6      -0.067400
     20 C20        104.6230    87.3120   120.1340 c3         1 VB6       0.148800
     21 N21        104.4720    88.2700   119.0440 n8         1 VB6      -0.995200
     22 O22        110.9450    84.9630   119.1200 o          1 VB6      -0.604100
     23 C23        112.8920    85.7520   120.7130 c3         1 VB6       0.080300
     24 C24        111.6210    87.9920   122.4180 c3         1 VB6      -0.012200
     25 C25        110.2630    87.5190   122.8070 cc         1 VB6      -0.133400
     26 C26        109.9010    86.2870   123.2720 cd         1 VB6      -0.149100
     27 N27        108.5520    86.2460   123.5000 na         1 VB6      -0.230700
     28 C28        108.0050    87.4560   123.1860 ca         1 VB6      -0.051200
     29 C29        109.0570    88.2890   122.7470 ca         1 VB6      -0.099800
     30 C30        108.7730    89.6040   122.3660 ca         1 VB6      -0.058000
     31 C31        107.4670    90.0490   122.4150 ca         1 VB6      -0.154000
     32 C32        106.4330    89.2010   122.8460 ca         1 VB6      -0.103000
     33 C33        106.6850    87.9010   123.2410 ca         1 VB6      -0.132000
     34 N34        113.3760    88.7250   119.1820 ns         1 VB6      -0.491900
     35 C35        114.5890    89.3080   118.6480 c3         1 VB6       0.148300
     36 C36        114.6020    90.8230   118.7120 ca         1 VB6      -0.041300
     37 C37        115.5010    91.5170   119.5390 cp         1 VB6       0.021000
     38 C38        116.6100    90.8490   120.2620 cp         1 VB6      -0.090000
     39 C39        117.5940    90.1490   119.5640 ca         1 VB6      -0.119500
     40 C40        118.6650    89.5740   120.2310 ca         1 VB6      -0.093000
     41 C41        118.7930    89.6840   121.6140 ca         1 VB6      -0.122600
     42 C42        119.9700    89.0480   122.3490 c          1 VB6       0.712600
     43 O43        120.8000    88.4380   121.6490 o          1 VB6      -0.720500
     44 O44        119.9940    89.1960   123.5870 o          1 VB6      -0.720500
     45 C45        117.8140    90.3930   122.3060 ca         1 VB6      -0.093000
     46 C46        116.7410    90.9700   121.6430 ca         1 VB6      -0.119500
     47 C47        115.3950    92.9020   119.6620 ca         1 VB6      -0.083000
     48 C48        114.4490    93.6190   118.9490 ca         1 VB6      -0.128000
     49 C49        113.6110    92.9530   118.0740 ca         1 VB6      -0.076000
     50 C50        113.6840    91.5700   117.9630 ca         1 VB6      -0.118000
     51 S51        112.7000    90.7880   116.7160 ss         1 VB6      -0.168300
     52 C52        111.0800    90.7150   117.4390 ca         1 VB6       0.485300
     53 C53        110.0500    90.1440   116.6780 ca         1 VB6      -0.162300
     54 C54        108.8040    90.0950   117.2810 ca         1 VB6      -0.075000
     55 C55        108.6180    90.6000   118.5610 ca         1 VB6      -0.188000
     56 C56        109.7090    91.1540   119.2010 ca         1 VB6       0.343900
     57 N57        110.9180    91.2030   118.6530 nb         1 VB6      -0.662000
     58 H1         111.0250    88.5640   120.4480 h1         1 VB6       0.068700
     59 H2         109.6820    87.9690   119.4380 h1         1 VB6       0.072700
     60 H3         108.5810    86.4930   117.3430 hn         1 VB6       0.317500
     61 H4         109.2220    86.4530   115.2330 h1         1 VB6       0.048700
     62 H5         108.5560    88.5190   115.0390 hn         1 VB6       0.421000
     63 H7         111.3200    89.4760   115.0690 h1         1 VB6       0.072700
     64 H8         109.9570    90.4350   114.5740 h1         1 VB6       0.072700
     65 H9         112.0350    87.4030   114.5570 hc         1 VB6       0.054700
     66 H10        110.8820    86.6200   113.4970 hc         1 VB6       0.054700
     67 H11        112.5690    85.0370   114.2230 hc         1 VB6       0.061200
     68 H12        112.2840    85.3660   115.9140 hc         1 VB6       0.061200
     69 H13        110.0490    84.3650   115.7970 h1         1 VB6       0.019700
     70 H14        110.1630    84.2170   114.0520 h1         1 VB6       0.019700
     71 H15        110.6970    82.1820   115.2840 hn         1 VB6       0.386000
     72 H16        111.9720    82.6670   114.4220 hn         1 VB6       0.386000
     73 H18        108.1810    85.3390   119.3460 hc         1 VB6       0.060200
     74 H19        108.5750    86.1300   120.8540 hc         1 VB6       0.060200
     75 H20        107.2410    88.0410   120.3920 hc         1 VB6       0.047200
     76 H21        107.0840    87.6640   118.6910 hc         1 VB6       0.047200
     77 H22        105.6960    85.7260   119.1400 hc         1 VB6       0.039700
     78 H23        105.9820    85.8360   120.8650 hc         1 VB6       0.039700
     79 H24        103.7380    86.6720   120.1470 h1         1 VB6       0.026700
     80 H25        104.6710    87.7920   121.1200 h1         1 VB6       0.026700
     81 H26        103.5670    88.7150   119.1220 hn         1 VB6       0.388500
     82 H27        105.1450    89.0160   119.1660 hn         1 VB6       0.388500
     83 H29        113.5670    86.2710   121.3880 h1         1 VB6       0.048700
     84 H30        112.5400    84.8560   121.2230 h1         1 VB6       0.048700
     85 H31        113.4600    85.4500   119.8340 h1         1 VB6       0.048700
     86 H32        112.3880    87.3890   122.9080 hc         1 VB6       0.074700
     87 H33        111.7670    89.0140   122.7700 hc         1 VB6       0.074700
     88 H34        110.5170    85.4200   123.4610 h4         1 VB6       0.220000
     89 H35        108.0490    85.4450   123.8450 hn         1 VB6       0.348000
     90 H36        109.5690    90.2630   122.0420 ha         1 VB6       0.123000
     91 H37        107.2320    91.0620   122.1170 ha         1 VB6       0.107000
     92 H38        105.4160    89.5700   122.8560 ha         1 VB6       0.102000
     93 H39        105.8840    87.2500   123.5680 ha         1 VB6       0.108000
     94 H40        112.6950    88.3400   118.5340 hn         1 VB6       0.353500
     95 H41        114.6840    88.9690   117.6170 h1         1 VB6       0.072200
     96 H42        115.4430    88.9040   119.1890 h1         1 VB6       0.072200
     97 H43        117.5250    90.0640   118.4860 ha         1 VB6       0.089500
     98 H44        119.4170    89.0390   119.6670 ha         1 VB6       0.127000
     99 H46        117.8890    90.4900   123.3810 ha         1 VB6       0.127000
    100 H47        115.9890    91.5100   122.2060 ha         1 VB6       0.089500
    101 H48        116.0870    93.4250   120.3110 ha         1 VB6       0.122000
    102 H49        114.3890    94.6940   119.0510 ha         1 VB6       0.105000
    103 H50        112.9020    93.5020   117.4690 ha         1 VB6       0.109000
    104 H51        107.9610    89.6610   116.7570 ha         1 VB6       0.105000
    105 H52        107.6510    90.5660   119.0440 ha         1 VB6       0.117000
    106 H53        109.6150    91.5770   120.1940 h4         1 VB6       0.018100
@<TRIPOS>BOND
     1     1     2 2   
     2     2     3 1   
     3     2    34 1   
     4     3     4 1   
     5     3    24 1   
     6     3    58 1   
     7     4     5 1   
     8     4    23 1   
     9     5     6 1   
    10     5    22 2   
    11     6     7 1   
    12     6    17 1   
    13     6    59 1   
    14     7     8 1   
    15     7    60 1   
    16     8     9 1   
    17     8    16 2   
    18     9    10 1   
    19     9    12 1   
    20     9    61 1   
    21    10    11 1   
    22    10    62 1   
    23    11    53 1   
    24    11    63 1   
    25    11    64 1   
    26    12    13 1   
    27    12    65 1   
    28    12    66 1   
    29    13    14 1   
    30    13    67 1   
    31    13    68 1   
    32    14    15 1   
    33    14    69 1   
    34    14    70 1   
    35    15    71 1   
    36    15    72 1   
    37    17    18 1   
    38    17    73 1   
    39    17    74 1   
    40    18    19 1   
    41    18    75 1   
    42    18    76 1   
    43    19    20 1   
    44    19    77 1   
    45    19    78 1   
    46    20    21 1   
    47    20    79 1   
    48    20    80 1   
    49    21    81 1   
    50    21    82 1   
    51    23    83 1   
    52    23    84 1   
    53    23    85 1   
    54    24    25 1   
    55    24    86 1   
    56    24    87 1   
    57    25    26 2   
    58    25    29 1   
    59    26    27 1   
    60    26    88 1   
    61    27    28 1   
    62    27    89 1   
    63    28    29 ar  
    64    28    33 ar  
    65    29    30 ar  
    66    30    31 ar  
    67    30    90 1   
    68    31    32 ar  
    69    31    91 1   
    70    32    33 ar  
    71    32    92 1   
    72    33    93 1   
    73    34    35 1   
    74    34    94 1   
    75    35    36 1   
    76    35    95 1   
    77    35    96 1   
    78    36    37 ar  
    79    36    50 ar  
    80    37    38 1   
    81    37    47 ar  
    82    38    39 ar  
    83    38    46 ar  
    84    39    40 ar  
    85    39    97 1   
    86    40    41 ar  
    87    40    98 1   
    88    41    42 1   
    89    41    45 ar  
    90    42    43 1   
    91    42    44 1   
    92    45    46 ar  
    93    45    99 1   
    94    46   100 1   
    95    47    48 ar  
    96    47   101 1   
    97    48    49 ar  
    98    48   102 1   
    99    49    50 ar  
   100    49   103 1   
   101    50    51 1   
   102    51    52 1   
   103    52    53 ar  
   104    52    57 ar  
   105    53    54 ar  
   106    54    55 ar  
   107    54   104 1   
   108    55    56 ar  
   109    55   105 1   
   110    56    57 ar  
   111    56   106 1   
@<TRIPOS>SUBSTRUCTURE
     1 VB6         1 TEMP              0 ****  ****    0 ROOT
