@<TRIPOS>MOLECULE
VB7
   62    66     1     0     0
SMALL
bcc


@<TRIPOS>ATOM
      1 C5          39.7170    -2.4730    26.9850 ca         1 VB7       0.711900
      2 C7          39.3500    -3.3640    29.0050 ca         1 VB7       0.508200
      3 C8          38.2120    -4.0140    28.5570 ca         1 VB7      -0.489200
      4 C13         39.3920    -6.6220    32.0600 cc         1 VB7      -0.112300
      5 C17         41.1170    -8.3340    31.5520 ca         1 VB7      -0.117300
      6 C20         42.9430    -6.6660    32.7810 c6         1 VB7       0.135400
      7 C22         40.2120    -9.3240    31.1720 ca         1 VB7      -0.111000
      8 C24         41.8840   -10.3540    29.7940 ca         1 VB7      -0.121000
      9 C26         35.5060    -2.6760    25.1530 c5         1 VB7      -0.095400
     10 C28         34.3170    -4.3870    23.9600 c5         1 VB7       0.155100
     11 C23         40.5880   -10.3290    30.2970 ca         1 VB7      -0.130000
     12 C25         42.7890    -9.3810    30.1810 ca         1 VB7      -0.127000
     13 C18         42.4210    -8.3670    31.0650 ca         1 VB7      -0.065300
     14 C19         43.4140    -7.3280    31.5030 c6         1 VB7      -0.069100
     15 O21         41.6170    -6.2040    32.6240 os         1 VB7      -0.398600
     16 C16         40.6780    -7.2440    32.5150 c6         1 VB7       0.261700
     17 C12         39.2570    -5.9160    30.8370 cc         1 VB7      -0.063000
     18 C14         38.2120    -6.6870    32.7420 cd         1 VB7      -0.109100
     19 S15         36.9290    -5.9370    31.9080 ss         1 VB7       0.015200
     20 C11         37.9820    -5.4710    30.6210 cd         1 VB7      -0.181700
     21 C9          37.3760    -4.8240    29.4540 c          1 VB7       0.652300
     22 O10         36.1790    -4.9800    29.2520 o          1 VB7      -0.573100
     23 N6          40.1180    -2.5930    28.2440 nb         1 VB7      -0.753000
     24 N4          38.6430    -2.9910    26.4330 nb         1 VB7      -0.805000
     25 C3          37.8490    -3.7590    27.1960 ca         1 VB7       0.752200
     26 N2          36.7590    -4.2730    26.6340 nu         1 VB7      -0.851900
     27 C1          36.3210    -3.9910    25.2820 c5         1 VB7       0.238500
     28 C29         35.3850    -5.1040    24.7780 c5         1 VB7      -0.137400
     29 O32         34.7990    -4.0000    22.6890 oh         1 VB7      -0.595800
     30 C27         34.0850    -3.0920    24.7430 c5         1 VB7      -0.064700
     31 C30         33.2270    -3.2910    25.9800 c3         1 VB7       0.176400
     32 O31         31.9210    -3.7200    25.5500 os         1 VB7      -0.568500
     33 S33         30.8010    -4.0560    26.6450 s6         1 VB7       1.544400
     34 O35         29.6460    -4.3710    25.8440 o          1 VB7      -0.606800
     35 O36         31.3350    -5.0070    27.5930 o          1 VB7      -0.606800
     36 N34         30.4860    -2.6860    27.4690 n8         1 VB7      -0.940700
     37 H1          40.3390    -1.8650    26.3360 h5         1 VB7       0.046100
     38 H2          39.6440    -3.4450    30.0460 h4         1 VB7       0.033100
     39 H4          43.5540    -5.7960    33.0250 h1         1 VB7       0.050200
     40 H5          39.2000    -9.3020    31.5580 ha         1 VB7       0.134000
     41 H6          42.1870   -11.1350    29.1080 ha         1 VB7       0.132000
     42 H7          35.9440    -2.0430    24.3820 hc         1 VB7       0.063700
     43 H8          35.5240    -2.0970    26.0790 hc         1 VB7       0.063700
     44 H9          33.4100    -4.9940    23.8640 h1         1 VB7       0.065700
     45 H10         39.8730   -11.0880    30.0070 ha         1 VB7       0.133000
     46 H11         43.8040    -9.4070    29.8010 ha         1 VB7       0.130000
     47 H12         44.3950    -7.7820    31.6570 hc         1 VB7       0.060700
     48 H13         43.5390    -6.5730    30.7210 hc         1 VB7       0.060700
     49 H14         40.5120    -7.7080    33.5010 h1         1 VB7       0.050700
     50 H15         40.0660    -5.7840    30.1310 ha         1 VB7       0.167000
     51 H16         38.0410    -7.1500    33.7030 h4         1 VB7       0.171000
     52 H17         36.1130    -4.7430    27.2530 hn         1 VB7       0.466800
     53 H18         37.2070    -3.9320    24.6550 h1         1 VB7       0.093700
     54 H19         34.9130    -5.6230    25.6160 hc         1 VB7       0.061200
     55 H20         35.9130    -5.8670    24.2040 hc         1 VB7       0.061200
     56 H21         35.0640    -4.7940    22.2130 ho         1 VB7       0.407000
     57 H22         33.6100    -2.3340    24.1150 hc         1 VB7       0.088700
     58 H23         33.1430    -2.3410    26.5150 h1         1 VB7       0.045200
     59 H24         33.6560    -4.0290    26.6620 h1         1 VB7       0.045200
     60 H25         31.1920    -2.4080    28.1400 hn         1 VB7       0.430800
     61 H26         30.1630    -1.9090    26.9010 hn         1 VB7       0.430800
     62 H3          43.0120    -7.3680    33.6230 h1         1 VB7       0.050200
@<TRIPOS>BOND
     1     1    23 ar  
     2     1    24 ar  
     3     1    37 1   
     4     2     3 ar  
     5     2    23 ar  
     6     2    38 1   
     7     3    21 1   
     8     3    25 ar  
     9     4    16 1   
    10     4    17 1   
    11     4    18 2   
    12     5     7 ar  
    13     5    13 ar  
    14     5    16 1   
    15     6    14 1   
    16     6    15 1   
    17     6    39 1   
    18     6    62 1   
    19     7    11 ar  
    20     7    40 1   
    21     8    11 ar  
    22     8    12 ar  
    23     8    41 1   
    24     9    27 1   
    25     9    30 1   
    26     9    42 1   
    27     9    43 1   
    28    10    28 1   
    29    10    29 1   
    30    10    30 1   
    31    10    44 1   
    32    11    45 1   
    33    12    13 ar  
    34    12    46 1   
    35    13    14 1   
    36    14    47 1   
    37    14    48 1   
    38    15    16 1   
    39    16    49 1   
    40    17    20 2   
    41    17    50 1   
    42    18    19 1   
    43    18    51 1   
    44    19    20 1   
    45    20    21 1   
    46    21    22 2   
    47    24    25 ar  
    48    25    26 1   
    49    26    27 1   
    50    26    52 1   
    51    27    28 1   
    52    27    53 1   
    53    28    54 1   
    54    28    55 1   
    55    29    56 1   
    56    30    31 1   
    57    30    57 1   
    58    31    32 1   
    59    31    58 1   
    60    31    59 1   
    61    32    33 1   
    62    33    34 2   
    63    33    35 2   
    64    33    36 1   
    65    36    60 1   
    66    36    61 1   
@<TRIPOS>SUBSTRUCTURE
     1 VB7         1 TEMP              0 ****  ****    0 ROOT
