@<TRIPOS>MOLECULE
VB7
   62    66     1     0     0
SMALL
No Charge or Current Charge


@<TRIPOS>ATOM
      1 C5          40.2570    -3.1600    26.5840 ca         1 VB7       0.185900
      2 C7          39.5210    -3.3860    28.7390 ca         1 VB7       0.179900
      3 C8          38.3550    -4.0180    28.2730 ca         1 VB7      -0.358600
      4 C13         39.0420    -6.5030    31.8930 cc         1 VB7      -0.112300
      5 C17         40.8590    -8.2040    31.3630 ca         1 VB7      -0.117300
      6 C20         42.6440    -6.5830    32.8820 c6         1 VB7       0.158600
      7 C22         39.9550    -9.1180    30.7790 ca         1 VB7      -0.093000
      8 C24         41.7770   -10.1890    29.5750 ca         1 VB7      -0.103000
      9 C26         35.8850    -2.7020    25.5740 c5         1 VB7      -0.095400
     10 C28         34.3090    -3.9320    24.1990 c5         1 VB7       0.178300
     11 C23         40.4120   -10.1030    29.8870 ca         1 VB7      -0.112000
     12 C25         42.6870    -9.2930    30.1590 ca         1 VB7      -0.109000
     13 C18         42.2370    -8.3060    31.0550 ca         1 VB7      -0.065300
     14 C19         43.2430    -7.3410    31.6820 c6         1 VB7      -0.069100
     15 O21         41.3350    -6.0970    32.5400 os         1 VB7      -0.445000
     16 C16         40.3410    -7.1310    32.3490 c6         1 VB7       0.284900
     17 C12         38.9710    -5.7530    30.6920 cc         1 VB7      -0.045000
     18 C14         37.8370    -6.6060    32.5410 cd         1 VB7      -0.236000
     19 S15         36.5520    -5.7590    31.6610 ss         1 VB7       0.305000
     20 C11         37.7130    -5.2660    30.4200 cd         1 VB7      -0.326600
     21 C9          37.3090    -4.4880    29.2280 c          1 VB7       0.652300
     22 O10         36.1310    -4.2350    29.0150 o          1 VB7      -0.573100
     23 N6          40.4800    -2.9580    27.8970 nb         1 VB7      -0.227000
     24 N4          39.1660    -3.7280    26.0360 nb         1 VB7      -0.279000
     25 C3          38.2050    -4.1420    26.8850 ca         1 VB7       0.423900
     26 N2          37.0490    -4.7130    26.3520 nu         1 VB7      -0.907100
     27 C1          36.5500    -4.0500    25.1140 c5         1 VB7       0.238500
     28 C29         35.3700    -4.9630    24.6580 c5         1 VB7      -0.137400
     29 O32         34.6680    -3.3240    22.9540 oh         1 VB7      -0.658000
     30 C27         34.3490    -2.9170    25.3830 c5         1 VB7      -0.064700
     31 C30         33.6230    -3.3840    26.6730 c3         1 VB7       0.199600
     32 O31         32.2390    -3.5740    26.3490 os         1 VB7      -0.591700
     33 S33         31.2910    -4.0540    27.5780 s6         1 VB7       1.402800
     34 O35         31.6500    -5.4020    28.0110 o          1 VB7      -0.536000
     35 O36         31.0940    -2.9470    28.5080 o          1 VB7      -0.536000
     36 N34         29.9520    -4.1490    26.6910 n8         1 VB7      -1.051100
     37 H1          41.0320    -2.8220    25.8980 h5         1 VB7       0.046100
     38 H2          39.6950    -3.2130    29.8000 h4         1 VB7       0.033100
     39 H4          43.2890    -5.7350    33.1520 h1         1 VB7       0.050200
     40 H5          38.8940    -9.0670    31.0140 ha         1 VB7       0.116000
     41 H6          42.1310   -10.9510    28.8830 ha         1 VB7       0.114000
     42 H7          36.2340    -1.8900    24.9260 hc         1 VB7       0.063700
     43 H8          36.1380    -2.3930    26.5950 hc         1 VB7       0.063700
     44 H9          33.3160    -4.3980    24.1100 h1         1 VB7       0.065700
     45 H10         39.7060   -10.8000    29.4400 ha         1 VB7       0.115000
     46 H11         43.7450    -9.3670    29.9150 ha         1 VB7       0.112000
     47 H12         44.1420    -7.8830    32.0040 hc         1 VB7       0.060700
     48 H13         43.5690    -6.6180    30.9240 hc         1 VB7       0.060700
     49 H14         40.1820    -7.6230    33.3200 h1         1 VB7       0.050700
     50 H15         39.8450    -5.6220    30.0600 ha         1 VB7       0.149000
     51 H16         37.6110    -7.1240    33.4650 h4         1 VB7       0.153000
     52 H17         36.3690    -4.9170    27.0850 hn         1 VB7       0.522000
     53 H18         37.2930    -3.9090    24.3120 h1         1 VB7       0.093700
     54 H19         34.9690    -5.6000    25.4540 hc         1 VB7       0.061200
     55 H20         35.6710    -5.6390    23.8510 hc         1 VB7       0.061200
     56 H21         34.5290    -4.0010    22.2560 ho         1 VB7       0.446000
     57 H22         33.8620    -1.9770    25.0990 hc         1 VB7       0.088700
     58 H23         33.7420    -2.6110    27.4450 h1         1 VB7       0.045200
     59 H24         34.0730    -4.3110    27.0500 h1         1 VB7       0.045200
     60 H25         29.4550    -3.3550    27.0810 hn         1 VB7       0.486000
     61 H26         30.3650    -3.7780    25.8390 hn         1 VB7       0.486000
     62 H3          42.5670    -7.2480    33.7550 h1         1 VB7       0.050200
@<TRIPOS>BOND
     1     1    23 ar  
     2     1    24 ar  
     3     1    37 1   
     4     2     3 ar  
     5     2    23 ar  
     6     2    38 1   
     7     3    21 1   
     8     3    25 ar  
     9     4    16 1   
    10     4    17 1   
    11     4    18 2   
    12     5     7 ar  
    13     5    13 ar  
    14     5    16 1   
    15     6    14 1   
    16     6    15 1   
    17     6    39 1   
    18     6    62 1   
    19     7    11 ar  
    20     7    40 1   
    21     8    11 ar  
    22     8    12 ar  
    23     8    41 1   
    24     9    27 1   
    25     9    30 1   
    26     9    42 1   
    27     9    43 1   
    28    10    28 1   
    29    10    29 1   
    30    10    30 1   
    31    10    44 1   
    32    11    45 1   
    33    12    13 ar  
    34    12    46 1   
    35    13    14 1   
    36    14    47 1   
    37    14    48 1   
    38    15    16 1   
    39    16    49 1   
    40    17    20 2   
    41    17    50 1   
    42    18    19 1   
    43    18    51 1   
    44    19    20 1   
    45    20    21 1   
    46    21    22 2   
    47    24    25 ar  
    48    25    26 1   
    49    26    27 1   
    50    26    52 1   
    51    27    28 1   
    52    27    53 1   
    53    28    54 1   
    54    28    55 1   
    55    29    56 1   
    56    30    31 1   
    57    30    57 1   
    58    31    32 1   
    59    31    58 1   
    60    31    59 1   
    61    32    33 1   
    62    33    34 2   
    63    33    35 2   
    64    33    36 1   
    65    36    60 1   
    66    36    61 1   
@<TRIPOS>SUBSTRUCTURE
     1 VB7         1 TEMP              0 ****  ****    0 ROOT
