@<TRIPOS>MOLECULE
VB8
   86    90     1     0     0
SMALL
bcc


@<TRIPOS>ATOM
      1 C10        -46.1130    31.1890    23.6640 ca         1 VB8      -0.093000
      2 C15        -44.9360    31.8720    23.9660 ca         1 VB8      -0.114600
      3 C20        -44.1850    36.5140    24.4180 c6         1 VB8      -0.061400
      4 C21        -43.3880    37.6610    23.7970 c6         1 VB8      -0.105400
      5 C22        -41.9080    37.3040    23.7510 c6         1 VB8       0.207800
      6 C02        -42.8440    24.5660    23.5470 c6         1 VB8      -0.047000
      7 C03        -43.9690    23.5290    23.5020 c3         1 VB8      -0.083100
      8 C04        -43.2330    25.7550    24.4340 c6         1 VB8      -0.067400
      9 C05        -44.3100    26.6340    23.8180 c6         1 VB8       0.167800
     10 C07        -44.8740    28.0340    21.9540 c3         1 VB8       0.211100
     11 C08        -44.9050    29.3510    22.6830 ca         1 VB8      -0.074300
     12 C09        -46.1030    29.9490    23.0470 ca         1 VB8      -0.118000
     13 C11        -43.7240    30.0300    22.9650 ca         1 VB8      -0.074000
     14 C12        -43.7210    31.2690    23.5970 ca         1 VB8       0.030900
     15 C16        -45.1430    33.2020    24.6470 c          1 VB8       0.673700
     16 C19        -43.6090    36.0620    25.7590 c6         1 VB8       0.115800
     17 C23        -42.1050    35.7910    25.6060 c6         1 VB8       0.175800
     18 C25        -40.9240    37.9020    25.9200 ca         1 VB8       0.736200
     19 C27        -40.2190    38.4490    28.0070 ca         1 VB8       0.717900
     20 C29        -40.0430    40.0570    26.4420 ca         1 VB8       0.732200
     21 C31        -39.8910    41.9370    24.8550 c3         1 VB8       0.283100
     22 C32        -41.3430    42.0840    24.4500 ca         1 VB8      -0.116300
     23 C33        -41.7340    41.8190    23.1420 ca         1 VB8      -0.116500
     24 C34        -43.0620    41.9530    22.7570 ca         1 VB8      -0.126000
     25 C35        -44.0160    42.3540    23.6810 ca         1 VB8      -0.122000
     26 C36        -43.6330    42.6220    24.9900 ca         1 VB8      -0.126000
     27 C37        -42.3050    42.4880    25.3710 ca         1 VB8      -0.116500
     28 C38        -40.5680    39.1840    25.4910 ca         1 VB8      -0.499600
     29 C41        -43.6490    26.0060    21.6040 c6         1 VB8       0.167800
     30 C42        -42.5460    25.1090    22.1440 c6         1 VB8      -0.067400
     31 N06        -43.9060    27.1140    22.5070 n3         1 VB8      -0.718600
     32 N17        -44.2060    33.6190    25.5120 ns         1 VB8      -0.565900
     33 N24        -41.4260    36.9590    25.0780 nh         1 VB8      -0.751300
     34 N26        -40.7450    37.5430    27.2060 nb         1 VB8      -0.834000
     35 N28        -39.8550    39.6810    27.7210 nb         1 VB8      -0.817000
     36 N30        -39.6980    41.3250    26.1420 nu         1 VB8      -0.883900
     37 O39        -43.8220    37.1230    26.6700 oh         1 VB8      -0.592800
     38 O40        -46.1760    33.8250    24.4400 o          1 VB8      -0.608100
     39 S13        -42.1120    31.9870    23.8690 ss         1 VB8      -0.310000
     40 H1         -47.0610    31.6340    23.9300 ha         1 VB8       0.157000
     41 H2         -45.2330    36.7960    24.5460 hc         1 VB8       0.057700
     42 H3         -44.1710    35.6670    23.7290 hc         1 VB8       0.057700
     43 H4         -43.5290    38.5860    24.3620 hc         1 VB8       0.057700
     44 H5         -43.7490    37.8530    22.7840 hc         1 VB8       0.057700
     45 H6         -41.7590    36.4300    23.1110 h1         1 VB8       0.051200
     46 H7         -41.3110    38.1010    23.3140 h1         1 VB8       0.051200
     47 H8         -40.7570    24.5980    24.1590 hc         1 VB8       0.033033
     48 H9         -41.7700    23.5220    25.1230 hc         1 VB8       0.033033
     49 H10        -41.2840    23.0500    23.4940 hc         1 VB8       0.033033
     50 H11        -44.1740    23.1420    24.5020 hc         1 VB8       0.033033
     51 H12        -44.9060    23.9280    23.1100 hc         1 VB8       0.033033
     52 H13        -43.6860    22.6830    22.8720 hc         1 VB8       0.033033
     53 H14        -43.5720    25.3980    25.4120 hc         1 VB8       0.047450
     54 H15        -42.3450    26.3700    24.6160 hc         1 VB8       0.047450
     55 H16        -44.4870    27.4920    24.4720 h1         1 VB8       0.031450
     56 H17        -45.2670    26.0880    23.7610 h1         1 VB8       0.031450
     57 H18        -44.6010    28.2270    20.9120 h1         1 VB8       0.040200
     58 H19        -45.8910    27.6080    21.9300 h1         1 VB8       0.040200
     59 H20        -47.0410    29.4450    22.8470 ha         1 VB8       0.136000
     60 H21        -42.7790    29.5850    22.6810 ha         1 VB8       0.162000
     61 H22        -41.1230    33.7620    22.6510 h1         1 VB8       0.066367
     62 H23        -42.2100    32.8280    21.6060 h1         1 VB8       0.066367
     63 H24        -42.8710    34.0110    22.7640 h1         1 VB8       0.066367
     64 H25        -45.3800    35.0510    26.4520 h1         1 VB8       0.064200
     65 H26        -43.9100    34.5930    27.2980 h1         1 VB8       0.064200
     66 H27        -41.9470    34.9660    24.9070 h1         1 VB8       0.071700
     67 H28        -41.6620    35.5010    26.5580 h1         1 VB8       0.071700
     68 H29        -40.0730    38.1380    29.0380 h5         1 VB8       0.037100
     69 H30        -39.3550    41.3790    24.0800 h1         1 VB8       0.054200
     70 H31        -39.4210    42.9200    24.8990 h1         1 VB8       0.054200
     71 H32        -40.9950    41.4900    22.4200 ha         1 VB8       0.130500
     72 H33        -43.3510    41.7360    21.7360 ha         1 VB8       0.132000
     73 H34        -45.0520    42.4540    23.3870 ha         1 VB8       0.133000
     74 H35        -44.3710    42.9350    25.7170 ha         1 VB8       0.132000
     75 H36        -42.0190    42.6900    26.3960 ha         1 VB8       0.130500
     76 H37        -40.7170    39.5100    24.4750 ha         1 VB8       0.151000
     77 H38        -43.3410    26.4120    20.6370 h1         1 VB8       0.031450
     78 H39        -44.5630    25.4180    21.4140 h1         1 VB8       0.031450
     79 H40        -42.3770    24.2840    21.4460 hc         1 VB8       0.047450
     80 H41        -41.6170    25.6890    22.1760 hc         1 VB8       0.047450
     81 H43        -43.3780    33.0540    25.6300 hn         1 VB8       0.335500
     82 H44        -39.3560    41.8890    26.9020 hn         1 VB8       0.450800
     83 H45        -43.2530    36.9950    27.4380 ho         1 VB8       0.416000
     84 C01        -41.5930    23.8970    24.1120 c3         1 VB8      -0.083100
     85 C14        -42.0930    33.2710    22.5930 c3         1 VB8      -0.014000
     86 C18        -44.3250    34.8160    26.3110 c3         1 VB8       0.079000
@<TRIPOS>BOND
     1     1     2 ar  
     2     1    12 ar  
     3     1    40 1   
     4     2    14 ar  
     5     2    15 1   
     6     3     4 1   
     7     3    16 1   
     8     3    41 1   
     9     3    42 1   
    10     4     5 1   
    11     4    43 1   
    12     4    44 1   
    13     5    33 1   
    14     5    45 1   
    15     5    46 1   
    16     6     7 1   
    17     6     8 1   
    18     6    30 1   
    19     6    84 1   
    20     7    50 1   
    21     7    51 1   
    22     7    52 1   
    23     8     9 1   
    24     8    53 1   
    25     8    54 1   
    26     9    31 1   
    27     9    55 1   
    28     9    56 1   
    29    10    11 1   
    30    10    31 1   
    31    10    57 1   
    32    10    58 1   
    33    11    12 ar  
    34    11    13 ar  
    35    12    59 1   
    36    13    14 ar  
    37    13    60 1   
    38    14    39 1   
    39    15    32 1   
    40    15    38 2   
    41    16    17 1   
    42    16    37 1   
    43    16    86 1   
    44    17    33 1   
    45    17    66 1   
    46    17    67 1   
    47    18    28 ar  
    48    18    33 1   
    49    18    34 ar  
    50    19    34 ar  
    51    19    35 ar  
    52    19    68 1   
    53    20    28 ar  
    54    20    35 ar  
    55    20    36 1   
    56    21    22 1   
    57    21    36 1   
    58    21    69 1   
    59    21    70 1   
    60    22    23 ar  
    61    22    27 ar  
    62    23    24 ar  
    63    23    71 1   
    64    24    25 ar  
    65    24    72 1   
    66    25    26 ar  
    67    25    73 1   
    68    26    27 ar  
    69    26    74 1   
    70    27    75 1   
    71    28    76 1   
    72    29    30 1   
    73    29    31 1   
    74    29    77 1   
    75    29    78 1   
    76    30    79 1   
    77    30    80 1   
    78    32    81 1   
    79    32    86 1   
    80    36    82 1   
    81    37    83 1   
    82    39    85 1   
    83    47    84 1   
    84    48    84 1   
    85    49    84 1   
    86    61    85 1   
    87    62    85 1   
    88    63    85 1   
    89    64    86 1   
    90    65    86 1   
@<TRIPOS>SUBSTRUCTURE
     1 VB8         1 TEMP              0 ****  ****    0 ROOT
