@<TRIPOS>MOLECULE
VB8
   86    90     1     0     0
SMALL
No Charge or Current Charge


@<TRIPOS>ATOM
      1 C10        -45.7580    31.2590    22.8470 ca         1 VB8      -0.075000
      2 C15        -44.7280    31.9570    23.5250 ca         1 VB8      -0.114600
      3 C20        -44.1280    36.5950    23.5980 c6         1 VB8      -0.061400
      4 C21        -43.3060    37.7240    22.9100 c6         1 VB8      -0.105400
      5 C22        -41.7870    37.4280    22.9590 c6         1 VB8       0.207800
      6 C02        -43.4580    24.4170    24.0660 c6         1 VB8      -0.047000
      7 C03        -44.6770    23.5820    23.5550 c3         1 VB8      -0.083100
      8 C04        -43.9250    25.7510    24.7210 c6         1 VB8      -0.067400
      9 C05        -44.4970    26.7540    23.6860 c6         1 VB8       0.167800
     10 C07        -43.9990    28.0680    21.6450 c3         1 VB8       0.211100
     11 C08        -44.2580    29.4260    22.2940 ca         1 VB8      -0.074300
     12 C09        -45.5300    30.0130    22.2430 ca         1 VB8      -0.100000
     13 C11        -43.2190    30.1060    22.9480 ca         1 VB8      -0.056000
     14 C12        -43.4270    31.3600    23.5560 ca         1 VB8      -0.096000
     15 C16        -45.1060    33.2990    24.1470 c          1 VB8       0.606700
     16 C19        -43.6210    36.3090    25.0460 c6         1 VB8       0.139000
     17 C23        -42.0880    36.0030    24.9860 c6         1 VB8       0.175800
     18 C25        -40.5550    38.0370    25.1030 ca         1 VB8       0.407900
     19 C27        -39.0900    38.3710    26.8350 ca         1 VB8       0.191900
     20 C29        -39.7590    40.2170    25.6770 ca         1 VB8       0.403900
     21 C31        -40.6390    42.4520    24.8050 c3         1 VB8       0.283100
     22 C32        -42.0560    42.3150    25.3620 ca         1 VB8      -0.116300
     23 C33        -43.0990    41.8280    24.5460 ca         1 VB8      -0.098500
     24 C34        -44.3990    41.6890    25.0620 ca         1 VB8      -0.108000
     25 C35        -44.6690    42.0430    26.3940 ca         1 VB8      -0.104000
     26 C36        -43.6380    42.5370    27.2110 ca         1 VB8      -0.108000
     27 C37        -42.3360    42.6730    26.6970 ca         1 VB8      -0.098500
     28 C38        -40.5440    39.4130    24.8490 ca         1 VB8      -0.351000
     29 C41        -43.0930    25.7920    21.9070 c6         1 VB8       0.167800
     30 C42        -42.4860    24.7660    22.9000 c6         1 VB8      -0.067400
     31 N06        -43.5190    27.0390    22.5980 n3         1 VB8      -0.718600
     32 N17        -44.2600    33.8310    25.0900 ns         1 VB8      -0.498900
     33 N24        -41.3600    37.1510    24.3570 nh         1 VB8      -0.751300
     34 N26        -39.8300    37.5120    26.1080 nb         1 VB8      -0.308000
     35 N28        -39.0180    39.7050    26.6680 nb         1 VB8      -0.291000
     36 N30        -39.6930    41.5900    25.5340 nu         1 VB8      -0.939100
     37 O39        -43.8090    37.4940    25.8320 oh         1 VB8      -0.655000
     38 O40        -46.1270    33.8920    23.8240 o          1 VB8      -0.608100
     39 S13        -41.9830    32.1240    24.3020 ss         1 VB8      -0.231000
     40 H1         -46.7600    31.6800    22.7940 ha         1 VB8       0.139000
     41 H2         -45.1930    36.8640    23.6140 hc         1 VB8       0.057700
     42 H3         -44.0490    35.6840    22.9890 hc         1 VB8       0.057700
     43 H4         -43.5080    38.6880    23.3960 hc         1 VB8       0.057700
     44 H5         -43.6250    37.8340    21.8650 hc         1 VB8       0.057700
     45 H6         -41.5700    36.5510    22.3310 h1         1 VB8       0.051200
     46 H7         -41.2250    38.2650    22.5200 h1         1 VB8       0.051200
     47 H8         -41.8480    24.0530    25.5340 hc         1 VB8       0.033033
     48 H9         -43.3820    23.2860    25.9630 hc         1 VB8       0.033033
     49 H10        -42.3720    22.5940    24.6840 hc         1 VB8       0.033033
     50 H11        -45.3590    23.3290    24.3760 hc         1 VB8       0.033033
     51 H12        -45.2660    24.1170    22.8020 hc         1 VB8       0.033033
     52 H13        -44.3510    22.6390    23.0990 hc         1 VB8       0.033033
     53 H14        -44.6800    25.5520    25.4940 hc         1 VB8       0.047450
     54 H15        -43.0790    26.2270    25.2360 hc         1 VB8       0.047450
     55 H16        -44.7590    27.6800    24.2190 h1         1 VB8       0.031450
     56 H17        -45.4320    26.3570    23.2650 h1         1 VB8       0.031450
     57 H18        -43.2520    28.2160    20.8530 h1         1 VB8       0.040200
     58 H19        -44.9180    27.7210    21.1520 h1         1 VB8       0.040200
     59 H20        -46.3480    29.5040    21.7380 ha         1 VB8       0.118000
     60 H21        -42.2360    29.6420    22.9880 ha         1 VB8       0.144000
     61 H22        -39.8480    32.6930    23.2560 h1         1 VB8       0.066367
     62 H23        -40.5020    31.1670    22.5970 h1         1 VB8       0.066367
     63 H24        -41.1870    32.7330    22.0720 h1         1 VB8       0.066367
     64 H25        -45.4760    35.4130    25.7710 h1         1 VB8       0.064200
     65 H26        -44.0630    35.0550    26.7720 h1         1 VB8       0.064200
     66 H27        -41.9140    35.0900    24.3980 h1         1 VB8       0.071700
     67 H28        -41.7200    35.7930    26.0010 h1         1 VB8       0.071700
     68 H29        -38.4970    37.9450    27.6430 h5         1 VB8       0.037100
     69 H30        -40.6340    42.1940    23.7360 h1         1 VB8       0.054200
     70 H31        -40.3270    43.5030    24.8850 h1         1 VB8       0.054200
     71 H32        -42.9020    41.5510    23.5130 ha         1 VB8       0.112500
     72 H33        -45.1970    41.3080    24.4280 ha         1 VB8       0.114000
     73 H34        -45.6760    41.9360    26.7930 ha         1 VB8       0.115000
     74 H35        -43.8460    42.8120    28.2420 ha         1 VB8       0.114000
     75 H36        -41.5430    43.0510    27.3370 ha         1 VB8       0.112500
     76 H37        -41.1390    39.8440    24.0560 ha         1 VB8       0.133000
     77 H38        -42.3360    26.0240    21.1440 h1         1 VB8       0.031450
     78 H39        -43.9440    25.3360    21.3810 h1         1 VB8       0.031450
     79 H40        -42.2010    23.8550    22.3560 hc         1 VB8       0.047450
     80 H41        -41.5540    25.1830    23.3060 hc         1 VB8       0.047450
     81 H43        -43.4500    33.2670    25.3180 hn         1 VB8       0.335500
     82 H44        -39.0830    42.0520    26.2090 hn         1 VB8       0.506000
     83 H45        -43.0570    38.0690    25.5650 ho         1 VB8       0.455000
     84 C01        -42.7240    23.5370    25.1220 c3         1 VB8      -0.083100
     85 C14        -40.7590    32.1830    22.9190 c3         1 VB8       0.033900
     86 C18        -44.4110    35.1460    25.7350 c3         1 VB8       0.079000
@<TRIPOS>BOND
     1     1     2 ar  
     2     1    12 ar  
     3     1    40 1   
     4     2    14 ar  
     5     2    15 1   
     6     3     4 1   
     7     3    16 1   
     8     3    41 1   
     9     3    42 1   
    10     4     5 1   
    11     4    43 1   
    12     4    44 1   
    13     5    33 1   
    14     5    45 1   
    15     5    46 1   
    16     6     7 1   
    17     6     8 1   
    18     6    30 1   
    19     6    84 1   
    20     7    50 1   
    21     7    51 1   
    22     7    52 1   
    23     8     9 1   
    24     8    53 1   
    25     8    54 1   
    26     9    31 1   
    27     9    55 1   
    28     9    56 1   
    29    10    11 1   
    30    10    31 1   
    31    10    57 1   
    32    10    58 1   
    33    11    12 ar  
    34    11    13 ar  
    35    12    59 1   
    36    13    14 ar  
    37    13    60 1   
    38    14    39 1   
    39    15    32 1   
    40    15    38 2   
    41    16    17 1   
    42    16    37 1   
    43    16    86 1   
    44    17    33 1   
    45    17    66 1   
    46    17    67 1   
    47    18    28 ar  
    48    18    33 1   
    49    18    34 ar  
    50    19    34 ar  
    51    19    35 ar  
    52    19    68 1   
    53    20    28 ar  
    54    20    35 ar  
    55    20    36 1   
    56    21    22 1   
    57    21    36 1   
    58    21    69 1   
    59    21    70 1   
    60    22    23 ar  
    61    22    27 ar  
    62    23    24 ar  
    63    23    71 1   
    64    24    25 ar  
    65    24    72 1   
    66    25    26 ar  
    67    25    73 1   
    68    26    27 ar  
    69    26    74 1   
    70    27    75 1   
    71    28    76 1   
    72    29    30 1   
    73    29    31 1   
    74    29    77 1   
    75    29    78 1   
    76    30    79 1   
    77    30    80 1   
    78    32    81 1   
    79    32    86 1   
    80    36    82 1   
    81    37    83 1   
    82    39    85 1   
    83    47    84 1   
    84    48    84 1   
    85    49    84 1   
    86    61    85 1   
    87    62    85 1   
    88    63    85 1   
    89    64    86 1   
    90    65    86 1   
@<TRIPOS>SUBSTRUCTURE
     1 VB8         1 TEMP              0 ****  ****    0 ROOT
