@<TRIPOS>MOLECULE
VB9
   29    30     1     0     0
SMALL
No Charge or Current Charge


@<TRIPOS>ATOM
      1 N1          46.2080    31.5380    27.3820 n          1 VB9      -0.314400
      2 C7          50.0580    33.2020    27.4230 cc         1 VB9      -0.161000
      3 C8          50.2560    33.9470    26.2850 cd         1 VB9      -0.203000
      4 N2          48.2680    31.8220    28.4610 ns         1 VB9      -0.420600
      5 C9          47.0200    31.2660    28.4840 cs         1 VB9       0.457400
      6 C1          43.3890    27.6290    26.1210 c3         1 VB9       0.148100
      7 C5          47.9990    32.8880    26.4150 cd         1 VB9      -0.374600
      8 C6          48.7760    32.6130    27.4760 cc         1 VB9       0.078600
      9 C4          46.6420    32.3580    26.3040 c          1 VB9       0.614600
     10 C3          44.8160    31.0140    27.3190 c3         1 VB9       0.089000
     11 C2          44.7210    29.6400    26.6130 c3         1 VB9       0.146800
     12 S1          46.5920    30.3140    29.7900 s          1 VB9      -0.581400
     13 N           43.3610    29.0350    26.5820 n3         1 VB9      -0.710600
     14 C           42.3640    29.8400    25.8350 c3         1 VB9       0.148100
     15 S           48.8170    33.9250    25.2400 ss         1 VB9       0.335000
     16 O           45.9370    32.6070    25.3350 o          1 VB9      -0.512000
     17 H1          50.7990    33.0720    28.2070 ha         1 VB9       0.150000
     18 H2          51.1360    34.5030    25.9860 h4         1 VB9       0.159000
     19 H3          48.8470    31.6080    29.2670 hn         1 VB9       0.481000
     20 H4          44.0680    27.0290    26.7410 h1         1 VB9       0.032867
     21 H5          42.3890    27.1780    26.1850 h1         1 VB9       0.032867
     22 H6          43.7290    27.5640    25.0780 h1         1 VB9       0.032867
     23 H7          44.1770    31.7380    26.8000 h1         1 VB9       0.090200
     24 H8          44.4060    30.9190    28.3310 h1         1 VB9       0.090200
     25 H9          45.4070    28.9590    27.1350 h1         1 VB9       0.044200
     26 H10         45.1030    29.7490    25.5880 h1         1 VB9       0.044200
     27 H12         42.2370    30.8330    26.2830 h1         1 VB9       0.032867
     28 H13         42.6690    29.9680    24.7870 h1         1 VB9       0.032867
     29 H14         41.3820    29.3470    25.8460 h1         1 VB9       0.032867
@<TRIPOS>BOND
     1     1     5 1   
     2     1     9 1   
     3     1    10 1   
     4     2     3 2   
     5     2     8 1   
     6     2    17 1   
     7     3    15 1   
     8     3    18 1   
     9     4     5 1   
    10     4     8 1   
    11     4    19 1   
    12     5    12 2   
    13     6    13 1   
    14     6    20 1   
    15     6    21 1   
    16     6    22 1   
    17     7     8 2   
    18     7     9 1   
    19     7    15 1   
    20     9    16 2   
    21    10    11 1   
    22    10    23 1   
    23    10    24 1   
    24    11    13 1   
    25    11    25 1   
    26    11    26 1   
    27    13    14 1   
    28    14    27 1   
    29    14    28 1   
    30    14    29 1   
@<TRIPOS>SUBSTRUCTURE
     1 VB9         1 TEMP              0 ****  ****    0 ROOT
