@<TRIPOS>MOLECULE
VB9
   29    30     1     0     0
SMALL
abcg2


@<TRIPOS>ATOM
      1 N1          46.1680    31.5520    27.4300 n          1 VB9      -0.314400
      2 C7          50.0100    33.1230    27.3720 cc         1 VB9      -0.161000
      3 C8          50.1090    33.8960    26.2500 cd         1 VB9      -0.203000
      4 N2          48.2510    31.7120    28.4510 ns         1 VB9      -0.420600
      5 C9          46.9950    31.1960    28.4700 cs         1 VB9       0.457400
      6 C1          43.4500    27.7220    26.2250 c3         1 VB9       0.148100
      7 C5          47.8820    32.8870    26.4320 cd         1 VB9      -0.374600
      8 C6          48.7190    32.5430    27.4700 cc         1 VB9       0.078600
      9 C4          46.5420    32.3960    26.3480 c          1 VB9       0.614600
     10 C3          44.7970    31.0230    27.3770 c3         1 VB9       0.089000
     11 C2          44.7530    29.7000    26.6160 c3         1 VB9       0.146800
     12 S1          46.5460    30.1800    29.7330 s          1 VB9      -0.581400
     13 N           43.4110    29.1320    26.5950 n3         1 VB9      -0.710600
     14 C           42.5140    29.8660    25.7090 c3         1 VB9       0.148100
     15 S           48.6690    33.9340    25.3080 ss         1 VB9       0.335000
     16 O           45.7510    32.6470    25.4500 o          1 VB9      -0.512000
     17 H1          50.8050    32.9750    28.0880 ha         1 VB9       0.150000
     18 H2          50.9680    34.4590    25.9210 h4         1 VB9       0.159000
     19 H3          48.8530    31.4450    29.2180 hn         1 VB9       0.481000
     20 H4          44.0860    27.1730    26.9200 h1         1 VB9       0.032867
     21 H5          42.4430    27.3040    26.2700 h1         1 VB9       0.032867
     22 H6          43.8380    27.5660    25.2040 h1         1 VB9       0.032867
     23 H7          44.1910    31.7820    26.8940 h1         1 VB9       0.090200
     24 H8          44.4550    30.8790    28.3970 h1         1 VB9       0.090200
     25 H9          45.4130    28.9950    27.1230 h1         1 VB9       0.044200
     26 H10         45.1480    29.8490    25.5970 h1         1 VB9       0.044200
     27 H12         42.4270    30.9060    26.0190 h1         1 VB9       0.032867
     28 H13         42.8590    29.8450    24.6610 h1         1 VB9       0.032867
     29 H14         41.5200    29.4190    25.7490 h1         1 VB9       0.032867
@<TRIPOS>BOND
     1     1     5 1   
     2     1     9 1   
     3     1    10 1   
     4     2     3 2   
     5     2     8 1   
     6     2    17 1   
     7     3    15 1   
     8     3    18 1   
     9     4     5 1   
    10     4     8 1   
    11     4    19 1   
    12     5    12 2   
    13     6    13 1   
    14     6    20 1   
    15     6    21 1   
    16     6    22 1   
    17     7     8 2   
    18     7     9 1   
    19     7    15 1   
    20     9    16 2   
    21    10    11 1   
    22    10    23 1   
    23    10    24 1   
    24    11    13 1   
    25    11    25 1   
    26    11    26 1   
    27    13    14 1   
    28    14    27 1   
    29    14    28 1   
    30    14    29 1   
@<TRIPOS>SUBSTRUCTURE
     1 VB9         1 TEMP              0 ****  ****    0 ROOT
