@<TRIPOS>MOLECULE
VBB
   52    54     1     0     0
SMALL
abcg2


@<TRIPOS>ATOM
      1 C02        -26.4070     3.6830     1.7750 ca         1 VBB       0.398900
      2 C04        -28.6070     4.1780     1.4020 ca         1 VBB       0.159000
      3 C05        -28.6460     4.9340     2.5800 ca         1 VBB      -0.246000
      4 C06        -27.4560     4.9880     3.2810 ca         1 VBB       0.255000
      5 C09        -29.8080     4.0300     0.5740 cc         1 VBB       0.164000
      6 C10        -30.1070     3.0830    -0.4340 cc         1 VBB      -0.056300
      7 C11        -31.4030     3.4150    -0.8350 cd         1 VBB      -0.229600
      8 C12        -27.9930    -0.7860     1.4660 ca         1 VBB      -0.112000
      9 C13        -28.0190     0.2710     0.5610 ca         1 VBB      -0.101500
     10 C14        -29.2290     0.7970     0.1100 ca         1 VBB      -0.068300
     11 C15        -30.4180     0.2420     0.5870 ca         1 VBB      -0.101500
     12 C16        -30.3970    -0.8160     1.4890 ca         1 VBB      -0.112000
     13 C17        -29.1830    -1.3330     1.9340 ca         1 VBB      -0.112000
     14 C18        -32.3260     2.7950    -1.7970 c          1 VBB       0.634700
     15 C21        -32.6030     0.9810    -3.3220 c3         1 VBB       0.165600
     16 C22        -33.3940    -0.0560    -2.5370 c3         1 VBB       0.133800
     17 C24        -33.4280    -1.8430    -4.1700 c3         1 VBB       0.148100
     18 C25        -35.2740    -1.5490    -2.6680 c3         1 VBB       0.148100
     19 C26        -29.2450     1.9420    -0.8850 c3         1 VBB       0.041200
     20 N01        -26.3420     4.3880     2.9250 nb         1 VBB      -0.241000
     21 N03        -27.4940     3.5660     0.9990 nb         1 VBB      -0.255000
     22 N07        -31.7870     4.5000    -0.0860 na         1 VBB       0.171800
     23 N08        -30.8400     4.8700     0.7580 nd         1 VBB      -0.486800
     24 N23        -34.2190    -0.8760    -3.4160 n3         1 VBB      -0.715600
     25 N28        -25.2930     3.0290     1.3900 nv         1 VBB      -1.071900
     26 O19        -31.7720     1.7470    -2.4170 os         1 VBB      -0.439100
     27 O20        -33.4590     3.1790    -1.9980 o          1 VBB      -0.493000
     28 CL29       -27.3920     5.9140     4.7690 cl         1 VBB      -0.173000
     29 H051       -29.5410     5.4260     2.9200 ha         1 VBB       0.161000
     30 H121       -27.0430    -1.1780     1.8070 ha         1 VBB       0.109500
     31 H131       -27.0910     0.7020     0.2080 ha         1 VBB       0.109500
     32 H151       -31.3680     0.6380     0.2510 ha         1 VBB       0.109500
     33 H161       -31.3290    -1.2360     1.8470 ha         1 VBB       0.109500
     34 H171       -29.1660    -2.1540     2.6400 ha         1 VBB       0.111000
     35 H211       -31.8970     0.5230    -4.0100 h1         1 VBB       0.072700
     36 H212       -33.2660     1.6480    -3.8680 h1         1 VBB       0.072700
     37 H221       -34.0510     0.4680    -1.8420 h1         1 VBB       0.046700
     38 H222       -32.6970    -0.6650    -1.9380 h1         1 VBB       0.046700
     39 H243       -32.6890    -1.3390    -4.7920 h1         1 VBB       0.033533
     40 H242       -32.8990    -2.5510    -3.5100 h1         1 VBB       0.033533
     41 H241       -34.0860    -2.4150    -4.8270 h1         1 VBB       0.033533
     42 H252       -35.8920    -0.8120    -2.1540 h1         1 VBB       0.033533
     43 H251       -35.9050    -2.1140    -3.3560 h1         1 VBB       0.033533
     44 H253       -34.8750    -2.2510    -1.9160 h1         1 VBB       0.033533
     45 H261       -29.6030     1.5780    -1.8450 hc         1 VBB       0.073700
     46 H262       -28.2280     2.2990    -1.0170 hc         1 VBB       0.073700
     47 H273       -32.9210     6.0660     0.5950 h1         1 VBB       0.070367
     48 H272       -33.2120     5.6470    -1.1140 h1         1 VBB       0.070367
     49 H271       -33.8670     4.6140     0.1690 h1         1 VBB       0.070367
     50 H282       -25.2710     2.5860     0.4880 hn         1 VBB       0.504500
     51 H281       -24.4280     3.1940     1.8750 hn         1 VBB       0.504500
     52 C27        -33.0340     5.2530    -0.1160 c3         1 VBB       0.074900
@<TRIPOS>BOND
     1     1    20 ar  
     2     1    21 ar  
     3     1    25 1   
     4     2     3 ar  
     5     2     5 1   
     6     2    21 ar  
     7     3     4 ar  
     8     3    29 1   
     9     4    20 ar  
    10     4    28 1   
    11     5     6 1   
    12     5    23 2   
    13     6     7 2   
    14     6    19 1   
    15     7    14 1   
    16     7    22 1   
    17     8     9 ar  
    18     8    13 ar  
    19     8    30 1   
    20     9    10 ar  
    21     9    31 1   
    22    10    11 ar  
    23    10    19 1   
    24    11    12 ar  
    25    11    32 1   
    26    12    13 ar  
    27    12    33 1   
    28    13    34 1   
    29    14    26 1   
    30    14    27 2   
    31    15    16 1   
    32    15    26 1   
    33    15    35 1   
    34    15    36 1   
    35    16    24 1   
    36    16    37 1   
    37    16    38 1   
    38    17    24 1   
    39    17    39 1   
    40    17    40 1   
    41    17    41 1   
    42    18    24 1   
    43    18    42 1   
    44    18    43 1   
    45    18    44 1   
    46    19    45 1   
    47    19    46 1   
    48    22    23 1   
    49    22    52 1   
    50    25    50 1   
    51    25    51 1   
    52    47    52 1   
    53    48    52 1   
    54    49    52 1   
@<TRIPOS>SUBSTRUCTURE
     1 VBB         1 TEMP              0 ****  ****    0 ROOT
