@<TRIPOS>MOLECULE
VBB
   52    54     1     0     0
SMALL
No Charge or Current Charge


@<TRIPOS>ATOM
      1 C02        -26.7440     3.4360     2.3870 ca         1 VBB       0.398900
      2 C04        -28.6740     4.3350     1.5030 ca         1 VBB       0.159000
      3 C05        -28.4790     5.4520     2.3520 ca         1 VBB      -0.246000
      4 C06        -27.3470     5.4720     3.1800 ca         1 VBB       0.255000
      5 C09        -29.8930     4.2300     0.6590 cc         1 VBB       0.164000
      6 C10        -30.1510     3.2930    -0.3910 cc         1 VBB      -0.056300
      7 C11        -31.4420     3.5510    -0.8080 cd         1 VBB      -0.229600
      8 C12        -28.0120    -1.1120     0.5080 ca         1 VBB      -0.112000
      9 C13        -28.0120     0.1360    -0.1400 ca         1 VBB      -0.101500
     10 C14        -29.1850     0.9150    -0.1920 ca         1 VBB      -0.068300
     11 C15        -30.3640     0.4200     0.4070 ca         1 VBB      -0.101500
     12 C16        -30.3630    -0.8280     1.0530 ca         1 VBB      -0.112000
     13 C17        -29.1880    -1.5940     1.1060 ca         1 VBB      -0.112000
     14 C18        -32.2520     2.8240    -1.8300 c          1 VBB       0.634700
     15 C21        -32.3890     0.8690    -3.2730 c3         1 VBB       0.165600
     16 C22        -33.3030    -0.0400    -2.4040 c3         1 VBB       0.133800
     17 C24        -33.3950    -1.9860    -3.9570 c3         1 VBB       0.148100
     18 C25        -35.1610    -1.6550    -2.2850 c3         1 VBB       0.148100
     19 C26        -29.1580     2.2650    -0.9130 c3         1 VBB       0.041200
     20 N01        -26.4640     4.4600     3.2020 nb         1 VBB      -0.241000
     21 N03        -27.7890     3.3120     1.5560 nb         1 VBB      -0.255000
     22 N07        -31.8590     4.6410    -0.0400 na         1 VBB       0.171800
     23 N08        -30.9050     5.0550     0.8630 nd         1 VBB      -0.486800
     24 N23        -34.1610    -0.9990    -3.1580 n3         1 VBB      -0.715600
     25 N28        -25.8740     2.3980     2.4100 nv         1 VBB      -1.071900
     26 O19        -31.6350     1.7470    -2.4090 os         1 VBB      -0.439100
     27 O20        -33.3930     3.1580    -2.1190 o          1 VBB      -0.493000
     28 Cl29       -27.0340     6.8340     4.2440 cl         1 VBB      -0.173000
     29 H051       -29.1760     6.2840     2.3680 ha         1 VBB       0.161000
     30 H121       -27.1010    -1.7060     0.5440 ha         1 VBB       0.109500
     31 H131       -27.0970     0.4950    -0.6050 ha         1 VBB       0.109500
     32 H151       -31.2860     0.9940     0.3750 ha         1 VBB       0.109500
     33 H161       -31.2760    -1.2020     1.5130 ha         1 VBB       0.109500
     34 H171       -29.1880    -2.5600     1.6060 ha         1 VBB       0.111000
     35 H211       -31.6960     0.2370    -3.8420 h1         1 VBB       0.072700
     36 H212       -32.9930     1.4340    -3.9950 h1         1 VBB       0.072700
     37 H221       -33.9480     0.6130    -1.8010 h1         1 VBB       0.046700
     38 H222       -32.6650    -0.5900    -1.6990 h1         1 VBB       0.046700
     39 H243       -32.7690    -1.4900    -4.7090 h1         1 VBB       0.033533
     40 H242       -32.7470    -2.5940    -3.3120 h1         1 VBB       0.033533
     41 H241       -34.0760    -2.6620    -4.4920 h1         1 VBB       0.033533
     42 H252       -35.7760    -0.9070    -1.7670 h1         1 VBB       0.033533
     43 H251       -35.8330    -2.2930    -2.8740 h1         1 VBB       0.033533
     44 H253       -34.6700    -2.2800    -1.5270 h1         1 VBB       0.033533
     45 H261       -29.3050     2.1050    -1.9850 hc         1 VBB       0.073700
     46 H262       -28.1480     2.6880    -0.8820 hc         1 VBB       0.073700
     47 H273       -33.1760     6.1620     0.6160 h1         1 VBB       0.070367
     48 H272       -33.3210     5.7210    -1.1090 h1         1 VBB       0.070367
     49 H271       -33.9580     4.6240     0.1540 h1         1 VBB       0.070367
     50 H282       -25.9460     1.6850     1.6880 hn         1 VBB       0.504500
     51 H281       -24.9640     2.5250     2.8470 hn         1 VBB       0.504500
     52 C27        -33.1590     5.3300    -0.0970 c3         1 VBB       0.074900
@<TRIPOS>BOND
     1     1    20 ar  
     2     1    21 ar  
     3     1    25 1   
     4     2     3 ar  
     5     2     5 1   
     6     2    21 ar  
     7     3     4 ar  
     8     3    29 1   
     9     4    20 ar  
    10     4    28 1   
    11     5     6 1   
    12     5    23 2   
    13     6     7 2   
    14     6    19 1   
    15     7    14 1   
    16     7    22 1   
    17     8     9 ar  
    18     8    13 ar  
    19     8    30 1   
    20     9    10 ar  
    21     9    31 1   
    22    10    11 ar  
    23    10    19 1   
    24    11    12 ar  
    25    11    32 1   
    26    12    13 ar  
    27    12    33 1   
    28    13    34 1   
    29    14    26 1   
    30    14    27 2   
    31    15    16 1   
    32    15    26 1   
    33    15    35 1   
    34    15    36 1   
    35    16    24 1   
    36    16    37 1   
    37    16    38 1   
    38    17    24 1   
    39    17    39 1   
    40    17    40 1   
    41    17    41 1   
    42    18    24 1   
    43    18    42 1   
    44    18    43 1   
    45    18    44 1   
    46    19    45 1   
    47    19    46 1   
    48    22    23 1   
    49    22    52 1   
    50    25    50 1   
    51    25    51 1   
    52    47    52 1   
    53    48    52 1   
    54    49    52 1   
@<TRIPOS>SUBSTRUCTURE
     1 VBB         1 TEMP              0 ****  ****    0 ROOT
