@<TRIPOS>MOLECULE
VBC
   26    27     1     0     0
SMALL
No Charge or Current Charge


@<TRIPOS>ATOM
      1 N            5.3790    -0.8250     0.0030 nv         1 VBC      -1.078000
      2 C            4.0580    -0.4710     0.0260 ca         1 VBC       0.260000
      3 O           -3.2520    -2.1330    -0.6990 o          1 VBC      -0.721000
      4 C1           3.0950    -1.3780     0.4870 ca         1 VBC      -0.179000
      5 C10         -0.5290     1.9800     0.3890 ca         1 VBC      -0.124000
      6 C11          2.3050     1.1650    -0.3900 ca         1 VBC      -0.072000
      7 C12          3.6630     0.8000    -0.4120 ca         1 VBC      -0.179000
      8 C2           1.7360    -1.0170     0.5100 ca         1 VBC      -0.072000
      9 C3           1.3120     0.2640     0.0710 cp         1 VBC      -0.032000
     10 C4          -0.1350     0.6520     0.0950 cp         1 VBC      -0.080000
     11 C5          -1.1540    -0.2980    -0.1760 ca         1 VBC      -0.072000
     12 C6          -2.5260     0.0520    -0.1580 ca         1 VBC      -0.139600
     13 C7          -3.5970    -0.9850    -0.4560 c          1 VBC       0.713600
     14 C8          -2.8770     1.3880     0.1410 ca         1 VBC      -0.078000
     15 C9          -1.8840     2.3430     0.4120 ca         1 VBC      -0.151000
     16 O1          -4.7700    -0.6370    -0.4430 o          1 VBC      -0.721000
     17 H1           6.0610    -0.2180    -0.4490 hn         1 VBC       0.435000
     18 H            5.6540    -1.7860     0.1990 hn         1 VBC       0.435000
     19 H2           3.3940    -2.3650     0.8320 ha         1 VBC       0.099000
     20 H7           0.2200     2.7340     0.6150 ha         1 VBC       0.084000
     21 H8           2.0190     2.1520    -0.7460 ha         1 VBC       0.116500
     22 H9           4.4030     1.5090    -0.7740 ha         1 VBC       0.099000
     23 H3           1.0080    -1.7320     0.8850 ha         1 VBC       0.116500
     24 H4          -0.8700    -1.3190    -0.4190 ha         1 VBC       0.128000
     25 H5          -3.9210     1.6910     0.1640 ha         1 VBC       0.127000
     26 H6          -2.1670     3.3670     0.6430 ha         1 VBC       0.085000
@<TRIPOS>BOND
     1     1     2 1   
     2     1    17 1   
     3     1    18 1   
     4     2     4 ar  
     5     2     7 ar  
     6     3    13 1   
     7     4     8 ar  
     8     4    19 1   
     9     5    10 ar  
    10     5    15 ar  
    11     5    20 1   
    12     6     7 ar  
    13     6     9 ar  
    14     6    21 1   
    15     7    22 1   
    16     8     9 ar  
    17     8    23 1   
    18     9    10 1   
    19    10    11 ar  
    20    11    12 ar  
    21    11    24 1   
    22    12    13 1   
    23    12    14 ar  
    24    13    16 1   
    25    14    15 ar  
    26    14    25 1   
    27    15    26 1   
@<TRIPOS>SUBSTRUCTURE
     1 VBC         1 TEMP              0 ****  ****    0 ROOT
