@<TRIPOS>MOLECULE
VBC
   26    27     1     0     0
SMALL
bcc


@<TRIPOS>ATOM
      1 N            5.3690    -0.8100     0.0790 nv         1 VBC      -0.829200
      2 C            4.0350    -0.4630     0.0540 ca         1 VBC       0.121600
      3 O           -3.1240    -2.1470    -0.7170 o          1 VBC      -0.826300
      4 C1           3.0500    -1.3510     0.5020 ca         1 VBC      -0.197000
      5 C10         -0.5200     1.9750     0.3800 ca         1 VBC      -0.142000
      6 C11          2.2870     1.1610    -0.3480 ca         1 VBC      -0.090000
      7 C12          3.6230     0.8060    -0.3720 ca         1 VBC      -0.197000
      8 C2           1.7170    -0.9830     0.5180 ca         1 VBC      -0.090000
      9 C3           1.2980     0.2800     0.0950 cp         1 VBC      -0.032000
     10 C4          -0.1280     0.6620     0.1070 cp         1 VBC      -0.080000
     11 C5          -1.1240    -0.2790    -0.1590 ca         1 VBC      -0.090000
     12 C6          -2.4740     0.0550    -0.1520 ca         1 VBC      -0.139600
     13 C7          -3.5330    -1.0000    -0.4560 c          1 VBC       0.924200
     14 C8          -2.8370     1.3710     0.1230 ca         1 VBC      -0.096000
     15 C9          -1.8620     2.3240     0.3850 ca         1 VBC      -0.169000
     16 O1          -4.7200    -0.6230    -0.4170 o          1 VBC      -0.826300
     17 H1           5.9650    -0.2940    -0.5480 hn         1 VBC       0.379800
     18 H            5.5610    -1.7980     0.0420 hn         1 VBC       0.379800
     19 H2           3.3360    -2.3370     0.8480 ha         1 VBC       0.117000
     20 H7           0.2260     2.7260     0.6090 ha         1 VBC       0.102000
     21 H8           2.0090     2.1440    -0.7100 ha         1 VBC       0.134500
     22 H9           4.3590     1.5150    -0.7340 ha         1 VBC       0.117000
     23 H3           0.9890    -1.6970     0.8840 ha         1 VBC       0.134500
     24 H4          -0.8470    -1.2980    -0.3990 ha         1 VBC       0.146000
     25 H5          -3.8820     1.6480     0.1330 ha         1 VBC       0.145000
     26 H6          -2.1480     3.3450     0.6050 ha         1 VBC       0.103000
@<TRIPOS>BOND
     1     1     2 1   
     2     1    17 1   
     3     1    18 1   
     4     2     4 ar  
     5     2     7 ar  
     6     3    13 1   
     7     4     8 ar  
     8     4    19 1   
     9     5    10 ar  
    10     5    15 ar  
    11     5    20 1   
    12     6     7 ar  
    13     6     9 ar  
    14     6    21 1   
    15     7    22 1   
    16     8     9 ar  
    17     8    23 1   
    18     9    10 1   
    19    10    11 ar  
    20    11    12 ar  
    21    11    24 1   
    22    12    13 1   
    23    12    14 ar  
    24    13    16 1   
    25    14    15 ar  
    26    14    25 1   
    27    15    26 1   
@<TRIPOS>SUBSTRUCTURE
     1 VBC         1 TEMP              0 ****  ****    0 ROOT
