@<TRIPOS>MOLECULE
VBD
   48    51     1     0     0
SMALL
No Charge or Current Charge


@<TRIPOS>ATOM
      1 C4         -22.8210   -53.6250    33.3530 ca         1 VBD       0.160500
      2 C14        -30.2300   -58.7920    35.2070 c3         1 VBD       0.182100
      3 C5         -21.7800   -53.1250    34.1640 ca         1 VBD       0.031100
      4 C6         -21.9100   -53.2240    35.5640 ca         1 VBD       0.160500
      5 C11        -28.6560   -59.6600    33.4810 c          1 VBD       0.568000
      6 C7         -26.1140   -55.8540    35.5570 ca         1 VBD       0.402900
      7 C8         -28.0500   -56.9510    36.0770 ca         1 VBD       0.140900
      8 C9         -27.9600   -57.6940    34.8790 ca         1 VBD      -0.234000
      9 C10        -26.7910   -57.4880    34.1100 ca         1 VBD       0.401900
     10 C12        -27.2590   -59.5670    32.7890 c6         1 VBD       0.160500
     11 C13        -26.3620   -60.7230    33.3070 c3         1 VBD      -0.117100
     12 N2         -27.1360   -56.0210    36.4080 nb         1 VBD      -0.255000
     13 C3         -23.9550   -54.2140    33.9290 ca         1 VBD      -0.184000
     14 N3         -25.8820   -56.5560    34.4410 nb         1 VBD      -0.291000
     15 C1         -23.0460   -53.8140    36.1390 ca         1 VBD      -0.184000
     16 C2         -24.0680   -54.3240    35.3260 ca         1 VBD       0.345000
     17 N4         -28.9030   -58.7500    34.5420 n          1 VBD      -0.189400
     18 N5         -26.5240   -58.2750    32.9680 nh         1 VBD      -0.774300
     19 F1         -20.9330   -52.7480    36.3700 f          1 VBD      -0.171000
     20 F2         -22.7400   -53.5360    32.0050 f          1 VBD      -0.171000
     21 O2         -20.6650   -52.5450    33.6020 oh         1 VBD      -0.509100
     22 C15        -30.2410   -59.6360    36.4130 c1         1 VBD      -0.181100
     23 C16        -30.2180   -60.3280    37.4050 c1         1 VBD      -0.207000
     24 C17        -25.5850   -57.8490    31.9040 c3         1 VBD       0.262800
     25 C18        -26.1550   -56.7380    31.0290 cx         1 VBD      -0.141700
     26 C19        -27.0820   -57.0490    29.8750 cx         1 VBD      -0.125900
     27 C20        -25.6830   -56.5440    29.6050 cx         1 VBD      -0.125900
     28 H1         -30.5350   -57.7730    35.4770 h1         1 VBD       0.082700
     29 H2         -30.9920   -59.1610    34.5090 h1         1 VBD       0.082700
     30 H3         -28.8650   -57.0850    36.7860 h4         1 VBD       0.033100
     31 H4         -27.4620   -59.7350    31.7210 h1         1 VBD       0.092700
     32 H5         -26.8430   -61.6960    33.1500 hc         1 VBD       0.054700
     33 H6         -25.3980   -60.7450    32.7850 hc         1 VBD       0.054700
     34 H7         -26.1610   -60.6180    34.3800 hc         1 VBD       0.054700
     35 H8         -25.3180   -54.6020    36.9050 hn         1 VBD       0.514000
     36 H9         -24.7490   -54.5660    33.2810 ha         1 VBD       0.153500
     37 H10        -23.1220   -53.8820    37.2200 ha         1 VBD       0.153500
     38 H11        -20.0600   -52.2580    34.3210 ho         1 VBD       0.476000
     39 H12        -30.1850   -60.9430    38.2840 ha         1 VBD       0.258000
     40 H13        -25.3320   -58.7070    31.2670 h1         1 VBD       0.055700
     41 H14        -24.6380   -57.5100    32.3450 h1         1 VBD       0.055700
     42 H15        -26.3690   -55.8360    31.5970 hc         1 VBD       0.095700
     43 H16        -27.9110   -56.3690    29.6970 hc         1 VBD       0.072450
     44 H17        -27.2950   -58.0930    29.6570 hc         1 VBD       0.072450
     45 H18        -24.9590   -57.2500    29.2040 hc         1 VBD       0.072450
     46 H19        -25.5720   -55.5250    29.2430 hc         1 VBD       0.072450
     47 N1         -25.1860   -54.8960    35.9380 nu         1 VBD      -0.926900
     48 O1         -29.4920   -60.4800    33.1050 o          1 VBD      -0.534000
@<TRIPOS>BOND
     1     1     3 ar  
     2     1    13 ar  
     3     1    20 1   
     4     2    17 1   
     5     2    22 1   
     6     2    28 1   
     7     2    29 1   
     8     3     4 ar  
     9     3    21 1   
    10     4    15 ar  
    11     4    19 1   
    12     5    10 1   
    13     5    17 1   
    14     5    48 2   
    15     6    12 ar  
    16     6    14 ar  
    17     6    47 1   
    18     7     8 ar  
    19     7    12 ar  
    20     7    30 1   
    21     8     9 ar  
    22     8    17 1   
    23     9    14 ar  
    24     9    18 1   
    25    10    11 1   
    26    10    18 1   
    27    10    31 1   
    28    11    32 1   
    29    11    33 1   
    30    11    34 1   
    31    13    16 ar  
    32    13    36 1   
    33    15    16 ar  
    34    15    37 1   
    35    16    47 1   
    36    18    24 1   
    37    21    38 1   
    38    22    23 3   
    39    23    39 1   
    40    24    25 1   
    41    24    40 1   
    42    24    41 1   
    43    25    26 1   
    44    25    27 1   
    45    25    42 1   
    46    26    27 1   
    47    26    43 1   
    48    26    44 1   
    49    27    45 1   
    50    27    46 1   
    51    35    47 1   
@<TRIPOS>SUBSTRUCTURE
     1 VBD         1 TEMP              0 ****  ****    0 ROOT
