@<TRIPOS>MOLECULE
VBD
   48    51     1     0     0
SMALL
abcg2


@<TRIPOS>ATOM
      1 C4         -22.5320   -54.2790    33.5080 ca         1 VBD       0.160500
      2 C14        -30.1220   -58.9010    35.2600 c3         1 VBD       0.182100
      3 C5         -21.7170   -53.4210    34.2310 ca         1 VBD       0.031100
      4 C6         -22.1930   -53.0770    35.4890 ca         1 VBD       0.160500
      5 C11        -28.6710   -59.5750    33.4410 c          1 VBD       0.568000
      6 C7         -26.2200   -55.8430    35.4720 ca         1 VBD       0.402900
      7 C8         -28.0110   -57.0810    36.0690 ca         1 VBD       0.140900
      8 C9         -27.9510   -57.7940    34.8940 ca         1 VBD      -0.234000
      9 C10        -26.8980   -57.4500    34.0180 ca         1 VBD       0.401900
     10 C12        -27.3190   -59.4580    32.7640 c6         1 VBD       0.160500
     11 C13        -26.3770   -60.5210    33.3310 c3         1 VBD      -0.117100
     12 N2         -27.1520   -56.1110    36.3780 nb         1 VBD      -0.255000
     13 C3         -23.7360   -54.7690    33.9690 ca         1 VBD      -0.184000
     14 N3         -26.0640   -56.4620    34.3090 nb         1 VBD      -0.291000
     15 C1         -23.3850   -53.5380    36.0000 ca         1 VBD      -0.184000
     16 C2         -24.1790   -54.4030    35.2410 ca         1 VBD       0.345000
     17 N4         -28.8960   -58.7500    34.4960 n          1 VBD      -0.189400
     18 N5         -26.7570   -58.1230    32.8630 nh         1 VBD      -0.774300
     19 F1         -21.4330   -52.2620    36.2400 f          1 VBD      -0.171000
     20 F2         -22.1140   -54.6510    32.2910 f          1 VBD      -0.171000
     21 O2         -20.5560   -52.9970    33.6960 oh         1 VBD      -0.509100
     22 C15        -29.9250   -59.7120    36.4590 c1         1 VBD      -0.181100
     23 C16        -29.7540   -60.3750    37.4450 c1         1 VBD      -0.207000
     24 C17        -25.7430   -57.7350    31.8910 c3         1 VBD       0.262800
     25 C18        -26.1600   -56.5440    31.0710 cx         1 VBD      -0.141700
     26 C19        -27.1060   -56.7350    29.9270 cx         1 VBD      -0.125900
     27 C20        -25.6630   -56.4210    29.6640 cx         1 VBD      -0.125900
     28 H1         -30.5030   -57.9130    35.5300 h1         1 VBD       0.082700
     29 H2         -30.8750   -59.3600    34.6220 h1         1 VBD       0.082700
     30 H3         -28.7800   -57.2780    36.8060 h4         1 VBD       0.033100
     31 H4         -27.4960   -59.6640    31.7070 h1         1 VBD       0.092700
     32 H5         -26.7840   -61.5200    33.1790 hc         1 VBD       0.054700
     33 H6         -25.4130   -60.4720    32.8240 hc         1 VBD       0.054700
     34 H7         -26.2100   -60.3730    34.3990 hc         1 VBD       0.054700
     35 H8         -25.5700   -54.4470    36.7280 hn         1 VBD       0.514000
     36 H9         -24.3120   -55.4310    33.3420 ha         1 VBD       0.153500
     37 H10        -23.6840   -53.2300    36.9940 ha         1 VBD       0.153500
     38 H11        -20.1240   -52.3580    34.2750 ho         1 VBD       0.476000
     39 H12        -29.6030   -60.9710    38.3170 ha         1 VBD       0.258000
     40 H13        -25.5780   -58.5900    31.2330 h1         1 VBD       0.055700
     41 H14        -24.7950   -57.5420    32.3970 h1         1 VBD       0.055700
     42 H15        -26.2580   -55.6190    31.6300 hc         1 VBD       0.095700
     43 H16        -27.8430   -55.9660    29.7370 hc         1 VBD       0.072450
     44 H17        -27.4500   -57.7410    29.7170 hc         1 VBD       0.072450
     45 H18        -25.0350   -57.2140    29.2760 hc         1 VBD       0.072450
     46 H19        -25.4080   -55.4350    29.2970 hc         1 VBD       0.072450
     47 N1         -25.3650   -54.8340    35.8190 nu         1 VBD      -0.926900
     48 O1         -29.4730   -60.4120    33.0740 o          1 VBD      -0.534000
@<TRIPOS>BOND
     1     1     3 ar  
     2     1    13 ar  
     3     1    20 1   
     4     2    17 1   
     5     2    22 1   
     6     2    28 1   
     7     2    29 1   
     8     3     4 ar  
     9     3    21 1   
    10     4    15 ar  
    11     4    19 1   
    12     5    10 1   
    13     5    17 1   
    14     5    48 2   
    15     6    12 ar  
    16     6    14 ar  
    17     6    47 1   
    18     7     8 ar  
    19     7    12 ar  
    20     7    30 1   
    21     8     9 ar  
    22     8    17 1   
    23     9    14 ar  
    24     9    18 1   
    25    10    11 1   
    26    10    18 1   
    27    10    31 1   
    28    11    32 1   
    29    11    33 1   
    30    11    34 1   
    31    13    16 ar  
    32    13    36 1   
    33    15    16 ar  
    34    15    37 1   
    35    16    47 1   
    36    18    24 1   
    37    21    38 1   
    38    22    23 3   
    39    23    39 1   
    40    24    25 1   
    41    24    40 1   
    42    24    41 1   
    43    25    26 1   
    44    25    27 1   
    45    25    42 1   
    46    26    27 1   
    47    26    43 1   
    48    26    44 1   
    49    27    45 1   
    50    27    46 1   
    51    35    47 1   
@<TRIPOS>SUBSTRUCTURE
     1 VBD         1 TEMP              0 ****  ****    0 ROOT
