@<TRIPOS>MOLECULE
VBF
   58    61     1     0     0
SMALL
abcg2


@<TRIPOS>ATOM
      1 C10         -7.8440    -6.0130    51.9510 cp         1 VBF       0.213500
      2 C13         -9.4760    -8.9850    53.5770 cc         1 VBF      -0.049800
      3 C15         -9.9550   -10.7960    55.0620 cd         1 VBF      -0.008400
      4 C20        -15.0850   -12.9160    54.3790 ca         1 VBF      -0.076000
      5 C21        -15.3420   -12.0900    55.4590 ca         1 VBF      -0.155000
      6 C22        -14.2670   -11.5010    56.1350 ca         1 VBF       0.362300
      7 C24        -15.3890    -9.3910    56.9010 c3         1 VBF      -0.117600
      8 C28        -10.7950   -10.9050    52.7950 c          1 VBF       0.549200
      9 C02         -6.4890    -6.2080    49.8240 ca         1 VBF      -0.006300
     10 C03         -6.1370    -5.6270    48.5900 ca         1 VBF      -0.031000
     11 C04         -5.2340    -6.3060    47.7150 cg         1 VBF       0.325000
     12 C06         -6.6370    -4.3870    48.1800 ca         1 VBF      -0.058000
     13 C07         -7.4960    -3.6910    49.0130 ca         1 VBF      -0.125000
     14 C08         -7.8530    -4.2410    50.2350 ca         1 VBF      -0.049000
     15 C09         -7.3760    -5.4900    50.6400 cp         1 VBF      -0.158500
     16 C11         -8.4130    -7.2780    52.0710 ca         1 VBF      -0.254000
     17 C12         -8.8510    -7.6600    53.3360 ca         1 VBF       0.211800
     18 C14         -9.3750    -9.5850    54.8590 cc         1 VBF      -0.276000
     19 C18        -12.7610   -12.5160    54.7180 ca         1 VBF       0.317300
     20 C19        -13.7660   -13.1360    53.9920 ca         1 VBF      -0.127000
     21 C25        -15.2310   -11.3870    58.4440 c3         1 VBF      -0.117600
     22 C30        -10.1590    -9.6370    52.5850 cd         1 VBF      -0.309200
     23 C32         -8.1760    -5.6510    54.1810 ca         1 VBF       0.380900
     24 N05         -4.5080    -6.8430    46.9970 n1         1 VBF      -0.456000
     25 N16        -10.6340   -11.4450    54.0780 n          1 VBF      -0.264000
     26 N27        -13.0090   -11.7210    55.7650 nb         1 VBF      -0.642000
     27 N31         -8.7240    -6.8580    54.3940 nb         1 VBF      -0.239000
     28 N33         -8.0290    -4.8380    55.2520 nv         1 VBF      -1.064900
     29 N34         -7.7340    -5.1910    52.9950 nb         1 VBF      -0.243000
     30 O26        -13.2730   -10.1150    57.8150 oh         1 VBF      -0.634000
     31 O29        -11.4530   -11.5150    51.9410 o          1 VBF      -0.574000
     32 H1          -9.9080   -11.3090    56.0100 h4         1 VBF       0.211000
     33 H2         -11.2040   -13.3610    53.5020 h1         1 VBF       0.075200
     34 H3         -10.7820   -13.1710    55.2120 h1         1 VBF       0.075200
     35 H4         -15.9010   -13.3790    53.8390 ha         1 VBF       0.122000
     36 H5         -16.3590   -11.9040    55.7720 ha         1 VBF       0.121000
     37 H6         -15.5450    -8.7310    57.7580 hc         1 VBF       0.045533
     38 H7         -14.8800    -8.8330    56.1150 hc         1 VBF       0.045533
     39 H8         -16.3650    -9.7050    56.5310 hc         1 VBF       0.045533
     40 H9          -4.8820    -7.6300    49.8320 hc         1 VBF       0.056033
     41 H10         -5.8470    -7.6290    51.3110 hc         1 VBF       0.056033
     42 H11         -6.4820    -8.3580    49.8390 hc         1 VBF       0.056033
     43 H12         -6.3410    -3.9820    47.2220 ha         1 VBF       0.127000
     44 H13         -7.8840    -2.7270    48.7120 ha         1 VBF       0.124000
     45 H14         -8.5220    -3.7040    50.8940 ha         1 VBF       0.128000
     46 H15         -8.5040    -7.9300    51.2170 ha         1 VBF       0.143000
     47 H16         -8.8410    -9.0980    55.6580 ha         1 VBF       0.217000
     48 H17        -13.5240   -13.7640    53.1460 ha         1 VBF       0.134000
     49 H18        -15.3990   -10.7390    59.3070 hc         1 VBF       0.045533
     50 H19        -16.1960   -11.7720    58.1150 hc         1 VBF       0.045533
     51 H20        -14.6070   -12.2280    58.7510 hc         1 VBF       0.045533
     52 H21        -10.2790    -9.2080    51.6000 ha         1 VBF       0.208000
     53 H22         -7.7820    -3.8750    55.0960 hn         1 VBF       0.499500
     54 H23         -8.4980    -5.0780    56.1090 hn         1 VBF       0.499500
     55 H24        -13.4560    -9.5480    58.5760 ho         1 VBF       0.435000
     56 C17        -11.3030   -12.7170    54.3710 c3         1 VBF       0.048700
     57 C01         -5.8910    -7.5260    50.2300 c3         1 VBF      -0.059800
     58 C23        -14.5360   -10.5910    57.3330 c3         1 VBF       0.128700
@<TRIPOS>BOND
     1     1    15 1   
     2     1    16 ar  
     3     1    29 ar  
     4     2    17 1   
     5     2    18 1   
     6     2    22 2   
     7     3    18 2   
     8     3    25 1   
     9     3    32 1   
    10     4     5 ar  
    11     4    20 ar  
    12     4    35 1   
    13     5     6 ar  
    14     5    36 1   
    15     6    26 ar  
    16     6    58 1   
    17     7    37 1   
    18     7    38 1   
    19     7    39 1   
    20     7    58 1   
    21     8    22 1   
    22     8    25 1   
    23     8    31 2   
    24     9    10 ar  
    25     9    15 ar  
    26     9    57 1   
    27    10    11 1   
    28    10    12 ar  
    29    11    24 3   
    30    12    13 ar  
    31    12    43 1   
    32    13    14 ar  
    33    13    44 1   
    34    14    15 ar  
    35    14    45 1   
    36    16    17 ar  
    37    16    46 1   
    38    17    27 ar  
    39    18    47 1   
    40    19    20 ar  
    41    19    26 ar  
    42    19    56 1   
    43    20    48 1   
    44    21    49 1   
    45    21    50 1   
    46    21    51 1   
    47    21    58 1   
    48    22    52 1   
    49    23    27 ar  
    50    23    28 1   
    51    23    29 ar  
    52    25    56 1   
    53    28    53 1   
    54    28    54 1   
    55    30    55 1   
    56    30    58 1   
    57    33    56 1   
    58    34    56 1   
    59    40    57 1   
    60    41    57 1   
    61    42    57 1   
@<TRIPOS>SUBSTRUCTURE
     1 VBF         1 TEMP              0 ****  ****    0 ROOT
