@<TRIPOS>MOLECULE
VBF
   58    61     1     0     0
SMALL
No Charge or Current Charge


@<TRIPOS>ATOM
      1 C10         -7.6420    -5.8330    51.6050 cp         1 VBF       0.213500
      2 C13         -9.4100    -8.6290    53.4960 cc         1 VBF      -0.049800
      3 C15        -10.2310   -10.2910    55.0950 cd         1 VBF      -0.008400
      4 C20        -15.3110   -11.8980    54.1860 ca         1 VBF      -0.076000
      5 C21        -15.5840   -11.7160    55.5510 ca         1 VBF      -0.155000
      6 C22        -14.5270   -11.7370    56.4890 ca         1 VBF       0.362300
      7 C24        -15.4460   -10.1390    58.2570 c3         1 VBF      -0.117600
      8 C28        -10.7450   -10.6170    52.7230 c          1 VBF       0.549200
      9 C02         -6.0610    -6.2620    49.6270 ca         1 VBF      -0.006300
     10 C03         -5.5990    -5.8820    48.3360 ca         1 VBF      -0.031000
     11 C04         -4.6190    -6.6570    47.6180 cg         1 VBF       0.325000
     12 C06         -6.0990    -4.7210    47.7160 ca         1 VBF      -0.058000
     13 C07         -7.0560    -3.9290    48.3620 ca         1 VBF      -0.125000
     14 C08         -7.5310    -4.3020    49.6250 ca         1 VBF      -0.049000
     15 C09         -7.0620    -5.4710    50.2740 cp         1 VBF      -0.158500
     16 C11         -8.2110    -7.1010    51.8670 ca         1 VBF      -0.254000
     17 C12         -8.7550    -7.3530    53.1460 ca         1 VBF       0.211800
     18 C14         -9.5610    -9.1140    54.8390 cc         1 VBF      -0.276000
     19 C18        -12.9720   -12.1060    54.7790 ca         1 VBF       0.317300
     20 C19        -13.9790   -12.0960    53.7960 ca         1 VBF      -0.127000
     21 C25        -15.7590   -12.6470    58.5350 c3         1 VBF      -0.117600
     22 C30        -10.0180    -9.3570    52.4890 cd         1 VBF      -0.309200
     23 C32         -8.2180    -5.2000    53.7260 ca         1 VBF       0.380900
     24 N05         -3.8260    -7.2790    47.0270 n1         1 VBF      -0.456000
     25 N16        -10.7950   -11.0460    54.0690 n          1 VBF      -0.264000
     26 N27        -13.2380   -11.9320    56.0950 nb         1 VBF      -0.642000
     27 N31         -8.7590    -6.3740    54.0770 nb         1 VBF      -0.239000
     28 N33         -8.2350    -4.2250    54.6690 nv         1 VBF      -1.064900
     29 N34         -7.6710    -4.8740    52.5490 nb         1 VBF      -0.243000
     30 O26        -13.6270   -11.5920    58.8270 oh         1 VBF      -0.634000
     31 O29        -11.2680   -11.2370    51.8060 o          1 VBF      -0.574000
     32 H1         -10.3770   -10.7090    56.0890 h4         1 VBF       0.211000
     33 H2         -11.4540   -13.0000    53.5500 h1         1 VBF       0.075200
     34 H3         -10.9910   -12.8000    55.2300 h1         1 VBF       0.075200
     35 H4         -16.1120   -11.8840    53.4490 ha         1 VBF       0.122000
     36 H5         -16.6070   -11.5600    55.8780 ha         1 VBF       0.121000
     37 H6         -15.6280    -9.9670    59.3250 hc         1 VBF       0.045533
     38 H7         -14.7810    -9.3470    57.8920 hc         1 VBF       0.045533
     39 H8         -16.4060   -10.0400    57.7370 hc         1 VBF       0.045533
     40 H9          -4.3900    -7.6010    50.1260 hc         1 VBF       0.056033
     41 H10         -5.5620    -7.4530    51.4070 hc         1 VBF       0.056033
     42 H11         -5.9550    -8.4160    49.9720 hc         1 VBF       0.056033
     43 H12         -5.7440    -4.4280    46.7290 ha         1 VBF       0.127000
     44 H13         -7.4370    -3.0320    47.8800 ha         1 VBF       0.124000
     45 H14         -8.2890    -3.6840    50.1050 ha         1 VBF       0.128000
     46 H15         -8.2040    -7.8610    51.0940 ha         1 VBF       0.143000
     47 H16         -9.1320    -8.5440    55.6610 ha         1 VBF       0.217000
     48 H17        -13.7260   -12.2360    52.7490 ha         1 VBF       0.134000
     49 H18        -15.9460   -12.5370    59.6110 hc         1 VBF       0.045533
     50 H19        -16.7290   -12.6180    58.0250 hc         1 VBF       0.045533
     51 H20        -15.3180   -13.6360    58.3650 hc         1 VBF       0.045533
     52 H21        -10.0230    -9.0460    51.4520 ha         1 VBF       0.208000
     53 H22         -8.0400    -3.2680    54.3820 hn         1 VBF       0.499500
     54 H23         -8.8280    -4.3450    55.4870 hn         1 VBF       0.499500
     55 H24        -13.9050   -11.4560    59.7570 ho         1 VBF       0.435000
     56 C17        -11.5100   -12.3070    54.3990 c3         1 VBF       0.048700
     57 C01         -5.4640    -7.4980    50.3170 c3         1 VBF      -0.059800
     58 C23        -14.8180   -11.5330    58.0130 c3         1 VBF       0.128700
@<TRIPOS>BOND
     1     1    15 1   
     2     1    16 ar  
     3     1    29 ar  
     4     2    17 1   
     5     2    18 1   
     6     2    22 2   
     7     3    18 2   
     8     3    25 1   
     9     3    32 1   
    10     4     5 ar  
    11     4    20 ar  
    12     4    35 1   
    13     5     6 ar  
    14     5    36 1   
    15     6    26 ar  
    16     6    58 1   
    17     7    37 1   
    18     7    38 1   
    19     7    39 1   
    20     7    58 1   
    21     8    22 1   
    22     8    25 1   
    23     8    31 2   
    24     9    10 ar  
    25     9    15 ar  
    26     9    57 1   
    27    10    11 1   
    28    10    12 ar  
    29    11    24 3   
    30    12    13 ar  
    31    12    43 1   
    32    13    14 ar  
    33    13    44 1   
    34    14    15 ar  
    35    14    45 1   
    36    16    17 ar  
    37    16    46 1   
    38    17    27 ar  
    39    18    47 1   
    40    19    20 ar  
    41    19    26 ar  
    42    19    56 1   
    43    20    48 1   
    44    21    49 1   
    45    21    50 1   
    46    21    51 1   
    47    21    58 1   
    48    22    52 1   
    49    23    27 ar  
    50    23    28 1   
    51    23    29 ar  
    52    25    56 1   
    53    28    53 1   
    54    28    54 1   
    55    30    55 1   
    56    30    58 1   
    57    33    56 1   
    58    34    56 1   
    59    40    57 1   
    60    41    57 1   
    61    42    57 1   
@<TRIPOS>SUBSTRUCTURE
     1 VBF         1 TEMP              0 ****  ****    0 ROOT
