@<TRIPOS>MOLECULE
VBG
   82    86     1     0     0
SMALL
abcg2


@<TRIPOS>ATOM
      1 O1         116.3510    32.1570    -2.3430 o          1 VBG      -0.601100
      2 O2         126.4510    29.2900    -6.0120 o          1 VBG      -0.511000
      3 O3         124.2440    29.0780    -4.8300 o          1 VBG      -0.511000
      4 O4         130.1410    35.5890    -5.6140 os         1 VBG      -0.435000
      5 C1         128.7560    33.7040    -6.2930 ca         1 VBG      -0.139300
      6 C2         128.2510    33.6290    -5.0000 ca         1 VBG      -0.074000
      7 C3         127.0970    32.9110    -4.7280 ca         1 VBG      -0.090500
      8 C4         126.4220    32.2410    -5.7400 ca         1 VBG      -0.055300
      9 C5         126.9690    32.2580    -7.0190 ca         1 VBG      -0.090500
     10 C6         125.1190    31.5380    -5.4740 c5         1 VBG      -0.204700
     11 C28        130.4680    38.0120    -3.9300 ca         1 VBG       0.203000
     12 C29        130.6910    38.6240    -2.7120 ca         1 VBG      -0.135000
     13 C30        129.7250    38.5220    -1.7230 ca         1 VBG      -0.073000
     14 C31        128.5550    37.8240    -1.9630 ca         1 VBG      -0.095000
     15 C32        128.3600    37.2140    -3.2020 ca         1 VBG       0.024000
     16 C33        127.1300    36.5180    -3.4160 cg         1 VBG       0.319000
     17 N3         126.1270    35.9710    -3.5610 n1         1 VBG      -0.445000
     18 C27        129.3200    37.2900    -4.2190 ca         1 VBG      -0.107300
     19 C26        129.1630    36.6280    -5.5560 c3         1 VBG       0.210900
     20 C24        131.2480    33.6720    -6.2570 c3         1 VBG       0.304500
     21 F3         132.3840    34.3040    -6.5480 f          1 VBG      -0.096167
     22 F2         131.2150    32.5420    -6.9590 f          1 VBG      -0.096167
     23 F1         131.2930    33.3420    -4.9700 f          1 VBG      -0.096167
     24 C25        130.0610    35.1280    -7.9830 c3         1 VBG       0.304500
     25 F6         130.3860    34.2090    -8.8930 f          1 VBG      -0.096167
     26 F5         128.8800    35.6390    -8.3350 f          1 VBG      -0.096167
     27 F4         130.9600    36.1040    -8.0710 f          1 VBG      -0.096167
     28 C          128.1150    32.9810    -7.2970 ca         1 VBG      -0.074000
     29 S          125.5030    29.7940    -5.0210 sy         1 VBG       1.032500
     30 C17        126.3240    29.8560    -3.4530 ca         1 VBG      -0.290500
     31 C22        127.7090    29.9580    -3.4030 ca         1 VBG       0.017500
     32 C21        128.3470    29.9760    -2.1740 ca         1 VBG      -0.177500
     33 C20        127.5800    29.8860    -1.0270 ca         1 VBG       0.228000
     34 F          128.1890    29.9000     0.1610 f          1 VBG      -0.168000
     35 C19        126.2010    29.7770    -1.0600 ca         1 VBG      -0.177500
     36 C18        125.5680    29.7580    -2.2900 ca         1 VBG       0.017500
     37 C9         124.1670    31.4910    -6.6810 c5         1 VBG      -0.078400
     38 C8         122.7500    31.4330    -6.1130 c5         1 VBG       0.108000
     39 N          122.8900    31.8590    -4.7230 n          1 VBG      -0.420800
     40 C7         124.2540    32.2190    -4.4080 c5         1 VBG       0.121000
     41 O          122.3940    31.2130    -2.5960 o          1 VBG      -0.631100
     42 N1         120.7170    31.3440    -4.1390 n          1 VBG      -0.398800
     43 C14        119.7920    30.6550    -3.2550 c6         1 VBG       0.071000
     44 C13        119.0640    31.6130    -2.3230 c6         1 VBG       0.065000
     45 N2         118.4160    32.6570    -3.0960 n          1 VBG      -0.417800
     46 C15        117.0760    32.8400    -3.0550 c          1 VBG       0.609100
     47 C16        116.4990    33.9380    -3.9190 c3         1 VBG      -0.177100
     48 C12        119.3360    33.3710    -3.9570 c6         1 VBG       0.065000
     49 C11        120.0620    32.4070    -4.8920 c6         1 VBG       0.071000
     50 H1         128.7380    34.1410    -4.1820 ha         1 VBG       0.133000
     51 H2         126.7230    32.9060    -3.7130 ha         1 VBG       0.129000
     52 H3         126.4900    31.7280    -7.8300 ha         1 VBG       0.129000
     53 H4         131.6080    39.1740    -2.5440 ha         1 VBG       0.143000
     54 H5         129.8850    38.9930    -0.7640 ha         1 VBG       0.130000
     55 H6         127.7940    37.7470    -1.2000 ha         1 VBG       0.134000
     56 H7         129.3250    37.3620    -6.3490 h1         1 VBG       0.065200
     57 H8         128.1500    36.2360    -5.6740 h1         1 VBG       0.065200
     58 H9         128.4740    32.9620    -8.3140 ha         1 VBG       0.133000
     59 H10        128.2980    30.0160    -4.3090 ha         1 VBG       0.152000
     60 H11        129.4240    30.0540    -2.1120 ha         1 VBG       0.142000
     61 H12        125.6320    29.7010    -0.1430 ha         1 VBG       0.142000
     62 H13        124.4900    29.6790    -2.3310 ha         1 VBG       0.152000
     63 H14        124.3670    30.6780    -7.3800 hc         1 VBG       0.070200
     64 H15        124.3020    32.4200    -7.2380 hc         1 VBG       0.070200
     65 H16        122.1020    32.0900    -6.6940 h1         1 VBG       0.061700
     66 H17        122.3310    30.4300    -6.1610 h1         1 VBG       0.061700
     67 H18        124.5140    31.9610    -3.3840 h1         1 VBG       0.074700
     68 H19        124.3980    33.3000    -4.5100 h1         1 VBG       0.074700
     69 H20        119.0580    30.1400    -3.8820 h1         1 VBG       0.066950
     70 H21        120.3200    29.8980    -2.6800 h1         1 VBG       0.066950
     71 H22        118.3220    31.0780    -1.7360 h1         1 VBG       0.064950
     72 H23        119.7760    32.0710    -1.6300 h1         1 VBG       0.064950
     73 H24        115.4260    33.9850    -3.7580 hc         1 VBG       0.059700
     74 H25        116.9260    34.9120    -3.6750 hc         1 VBG       0.059700
     75 H26        116.6790    33.7590    -4.9790 hc         1 VBG       0.059700
     76 H27        120.0710    33.8960    -3.3370 h1         1 VBG       0.064950
     77 H28        118.8220    34.1210    -4.5520 h1         1 VBG       0.064950
     78 H29        120.7830    32.9750    -5.4740 h1         1 VBG       0.066950
     79 H30        119.3470    31.9630    -5.5890 h1         1 VBG       0.066950
     80 C10        122.0280    31.4650    -3.7370 c          1 VBG       0.661100
     81 C23        130.0010    34.5520    -6.5350 c3         1 VBG       0.114300
     82 F7         131.3990    38.1290    -4.8810 f          1 VBG      -0.157000
@<TRIPOS>BOND
     1     1    46 2   
     2     2    29 2   
     3     3    29 2   
     4     4    19 1   
     5     4    81 1   
     6     5     6 ar  
     7     5    28 ar  
     8     5    81 1   
     9     6     7 ar  
    10     6    50 1   
    11     7     8 ar  
    12     7    51 1   
    13     8     9 ar  
    14     8    10 1   
    15     9    28 ar  
    16     9    52 1   
    17    10    29 1   
    18    10    37 1   
    19    10    40 1   
    20    11    12 ar  
    21    11    18 ar  
    22    11    82 1   
    23    12    13 ar  
    24    12    53 1   
    25    13    14 ar  
    26    13    54 1   
    27    14    15 ar  
    28    14    55 1   
    29    15    16 1   
    30    15    18 ar  
    31    16    17 3   
    32    18    19 1   
    33    19    56 1   
    34    19    57 1   
    35    20    21 1   
    36    20    22 1   
    37    20    23 1   
    38    20    81 1   
    39    24    25 1   
    40    24    26 1   
    41    24    27 1   
    42    24    81 1   
    43    28    58 1   
    44    29    30 1   
    45    30    31 ar  
    46    30    36 ar  
    47    31    32 ar  
    48    31    59 1   
    49    32    33 ar  
    50    32    60 1   
    51    33    34 1   
    52    33    35 ar  
    53    35    36 ar  
    54    35    61 1   
    55    36    62 1   
    56    37    38 1   
    57    37    63 1   
    58    37    64 1   
    59    38    39 1   
    60    38    65 1   
    61    38    66 1   
    62    39    40 1   
    63    39    80 1   
    64    40    67 1   
    65    40    68 1   
    66    41    80 2   
    67    42    43 1   
    68    42    49 1   
    69    42    80 1   
    70    43    44 1   
    71    43    69 1   
    72    43    70 1   
    73    44    45 1   
    74    44    71 1   
    75    44    72 1   
    76    45    46 1   
    77    45    48 1   
    78    46    47 1   
    79    47    73 1   
    80    47    74 1   
    81    47    75 1   
    82    48    49 1   
    83    48    76 1   
    84    48    77 1   
    85    49    78 1   
    86    49    79 1   
@<TRIPOS>SUBSTRUCTURE
     1 VBG         1 TEMP              0 ****  ****    0 ROOT
