@<TRIPOS>MOLECULE
VBG
   82    86     1     0     0
SMALL
No Charge or Current Charge


@<TRIPOS>ATOM
      1 O1         116.4360    33.8190    -2.0370 o          1 VBG      -0.601100
      2 O2         126.1290    28.8740    -6.3200 o          1 VBG      -0.511000
      3 O3         124.4530    28.6410    -4.4160 o          1 VBG      -0.511000
      4 O4         129.9270    35.5340    -5.1520 os         1 VBG      -0.435000
      5 C1         128.6410    33.6180    -5.9610 ca         1 VBG      -0.139300
      6 C2         128.1120    33.4070    -4.6700 ca         1 VBG      -0.074000
      7 C3         126.9530    32.6440    -4.4730 ca         1 VBG      -0.090500
      8 C4         126.2710    32.0530    -5.5590 ca         1 VBG      -0.055300
      9 C5         126.8200    32.2320    -6.8460 ca         1 VBG      -0.090500
     10 C6         125.0390    31.1440    -5.3320 c5         1 VBG      -0.204700
     11 C28        130.0360    38.4740    -4.0700 ca         1 VBG       0.203000
     12 C29        130.2090    39.3460    -2.9860 ca         1 VBG      -0.135000
     13 C30        129.3850    39.2360    -1.8560 ca         1 VBG      -0.073000
     14 C31        128.3870    38.2490    -1.8170 ca         1 VBG      -0.095000
     15 C32        128.2040    37.3660    -2.9020 ca         1 VBG       0.024000
     16 C33        127.1610    36.3770    -2.8030 cg         1 VBG       0.319000
     17 N3         126.3050    35.5870    -2.7110 n1         1 VBG      -0.445000
     18 C27        129.0370    37.4760    -4.0490 ca         1 VBG      -0.107300
     19 C26        128.9000    36.5480    -5.2570 c3         1 VBG       0.210900
     20 C24        131.1770    33.5390    -5.7200 c3         1 VBG       0.304500
     21 F3         132.3580    34.1790    -5.8890 f          1 VBG      -0.096167
     22 F2         131.2230    32.3980    -6.4490 f          1 VBG      -0.096167
     23 F1         131.1100    33.1710    -4.4170 f          1 VBG      -0.096167
     24 C25        130.1630    35.0620    -7.5800 c3         1 VBG       0.304500
     25 F6         130.5690    34.1350    -8.4800 f          1 VBG      -0.096167
     26 F5         129.0260    35.6140    -8.0690 f          1 VBG      -0.096167
     27 F4         131.1040    36.0370    -7.5700 f          1 VBG      -0.096167
     28 C          127.9800    32.9990    -7.0470 ca         1 VBG      -0.074000
     29 S          125.5670    29.3590    -5.0520 sy         1 VBG       1.032500
     30 C17        126.9200    29.4240    -3.8600 ca         1 VBG      -0.290500
     31 C22        128.2340    29.6740    -4.3100 ca         1 VBG       0.017500
     32 C21        129.2850    29.7710    -3.3820 ca         1 VBG      -0.177500
     33 C20        129.0260    29.6150    -2.0140 ca         1 VBG       0.228000
     34 F          130.0380    29.7100    -1.1250 f          1 VBG      -0.168000
     35 C19        127.7220    29.3630    -1.5610 ca         1 VBG      -0.177500
     36 C18        126.6640    29.2680    -2.4810 ca         1 VBG       0.017500
     37 C9         124.0280    31.2860    -6.5190 c5         1 VBG      -0.078400
     38 C8         122.6870    30.8440    -5.8850 c5         1 VBG       0.108000
     39 N          122.7950    31.4280    -4.5240 n          1 VBG      -0.420800
     40 C7         124.2020    31.6650    -4.1170 c5         1 VBG       0.121000
     41 O          122.0360    31.3190    -2.3710 o          1 VBG      -0.631100
     42 N1         120.4170    31.3520    -3.9820 n          1 VBG      -0.398800
     43 C14        119.3350    30.8540    -3.1050 c6         1 VBG       0.071000
     44 C13        118.5000    32.0030    -2.5010 c6         1 VBG       0.065000
     45 N2         118.0110    33.0000    -3.5010 n          1 VBG      -0.417800
     46 C15        116.9840    33.9010    -3.1300 c          1 VBG       0.609100
     47 C16        116.5080    34.9410    -4.1470 c3         1 VBG      -0.177100
     48 C12        119.0070    33.3650    -4.5590 c6         1 VBG       0.065000
     49 C11        119.8940    32.2020    -5.0790 c6         1 VBG       0.071000
     50 H1         128.6080    33.8290    -3.7990 ha         1 VBG       0.133000
     51 H2         126.6100    32.4950    -3.4520 ha         1 VBG       0.129000
     52 H3         126.3640    31.7560    -7.7110 ha         1 VBG       0.129000
     53 H4         130.9840    40.1080    -3.0240 ha         1 VBG       0.143000
     54 H5         129.5180    39.9120    -1.0140 ha         1 VBG       0.130000
     55 H6         127.7520    38.1710    -0.9360 ha         1 VBG       0.134000
     56 H7         129.0260    37.1480    -6.1660 h1         1 VBG       0.065200
     57 H8         127.8980    36.1030    -5.3020 h1         1 VBG       0.065200
     58 H9         128.3580    33.0830    -8.0610 ha         1 VBG       0.133000
     59 H10        128.4430    29.8110    -5.3710 ha         1 VBG       0.152000
     60 H11        130.2970    29.9710    -3.7230 ha         1 VBG       0.142000
     61 H12        127.5330    29.2450    -0.4980 ha         1 VBG       0.142000
     62 H13        125.6540    29.0800    -2.1180 ha         1 VBG       0.152000
     63 H14        124.2860    30.6820    -7.3960 hc         1 VBG       0.070200
     64 H15        123.9540    32.3280    -6.8540 hc         1 VBG       0.070200
     65 H16        121.8430    31.2110    -6.4770 h1         1 VBG       0.061700
     66 H17        122.5970    29.7520    -5.8320 h1         1 VBG       0.061700
     67 H18        124.4620    31.1560    -3.1780 h1         1 VBG       0.074700
     68 H19        124.3430    32.7430    -3.9590 h1         1 VBG       0.074700
     69 H20        118.6730    30.2080    -3.6990 h1         1 VBG       0.066950
     70 H21        119.7470    30.2330    -2.2970 h1         1 VBG       0.066950
     71 H22        117.6450    31.5650    -1.9660 h1         1 VBG       0.064950
     72 H23        119.1130    32.5300    -1.7560 h1         1 VBG       0.064950
     73 H24        115.6390    35.5060    -3.7940 hc         1 VBG       0.059700
     74 H25        117.3390    35.6110    -4.3920 hc         1 VBG       0.059700
     75 H26        116.3050    34.4450    -5.1030 hc         1 VBG       0.059700
     76 H27        119.6670    34.1420    -4.1470 h1         1 VBG       0.064950
     77 H28        118.4990    33.8050    -5.4270 h1         1 VBG       0.064950
     78 H29        120.7120    32.6610    -5.6470 h1         1 VBG       0.066950
     79 H30        119.3100    31.5760    -5.7690 h1         1 VBG       0.066950
     80 C10        121.7640    31.3690    -3.5630 c          1 VBG       0.661100
     81 C23        129.9520    34.4420    -6.1310 c3         1 VBG       0.114300
     82 F7         130.8460    38.6060    -5.1460 f          1 VBG      -0.157000
@<TRIPOS>BOND
     1     1    46 2   
     2     2    29 2   
     3     3    29 2   
     4     4    19 1   
     5     4    81 1   
     6     5     6 ar  
     7     5    28 ar  
     8     5    81 1   
     9     6     7 ar  
    10     6    50 1   
    11     7     8 ar  
    12     7    51 1   
    13     8     9 ar  
    14     8    10 1   
    15     9    28 ar  
    16     9    52 1   
    17    10    29 1   
    18    10    37 1   
    19    10    40 1   
    20    11    12 ar  
    21    11    18 ar  
    22    11    82 1   
    23    12    13 ar  
    24    12    53 1   
    25    13    14 ar  
    26    13    54 1   
    27    14    15 ar  
    28    14    55 1   
    29    15    16 1   
    30    15    18 ar  
    31    16    17 3   
    32    18    19 1   
    33    19    56 1   
    34    19    57 1   
    35    20    21 1   
    36    20    22 1   
    37    20    23 1   
    38    20    81 1   
    39    24    25 1   
    40    24    26 1   
    41    24    27 1   
    42    24    81 1   
    43    28    58 1   
    44    29    30 1   
    45    30    31 ar  
    46    30    36 ar  
    47    31    32 ar  
    48    31    59 1   
    49    32    33 ar  
    50    32    60 1   
    51    33    34 1   
    52    33    35 ar  
    53    35    36 ar  
    54    35    61 1   
    55    36    62 1   
    56    37    38 1   
    57    37    63 1   
    58    37    64 1   
    59    38    39 1   
    60    38    65 1   
    61    38    66 1   
    62    39    40 1   
    63    39    80 1   
    64    40    67 1   
    65    40    68 1   
    66    41    80 2   
    67    42    43 1   
    68    42    49 1   
    69    42    80 1   
    70    43    44 1   
    71    43    69 1   
    72    43    70 1   
    73    44    45 1   
    74    44    71 1   
    75    44    72 1   
    76    45    46 1   
    77    45    48 1   
    78    46    47 1   
    79    47    73 1   
    80    47    74 1   
    81    47    75 1   
    82    48    49 1   
    83    48    76 1   
    84    48    77 1   
    85    49    78 1   
    86    49    79 1   
@<TRIPOS>SUBSTRUCTURE
     1 VBG         1 TEMP              0 ****  ****    0 ROOT
