@<TRIPOS>MOLECULE
VBH
   58    60     1     0     0
SMALL
abcg2


@<TRIPOS>ATOM
      1 N1          39.4670    19.4760     8.6600 n          1 VBH      -0.394800
      2 C4          40.4040    18.8860    10.8780 c3         1 VBH       0.003900
      3 C5          40.1960    18.0570    12.1260 ca         1 VBH      -0.079300
      4 C6          40.6250    18.5740    13.3480 ca         1 VBH      -0.103250
      5 C7          40.4860    17.8490    14.5210 ca         1 VBH      -0.107250
      6 C8          39.9100    16.5840    14.4940 ca         1 VBH      -0.108500
      7 C10         39.6200    16.7900    12.1110 ca         1 VBH      -0.103250
      8 C13         43.7870    17.5090     9.7920 ca         1 VBH      -0.107250
      9 C15         43.7820    19.8810     9.4370 ca         1 VBH      -0.107250
     10 C17         40.2310    19.3620     7.5470 c          1 VBH       0.642300
     11 C20         42.5610    16.6850     6.2930 cc         1 VBH      -0.213400
     12 C21         43.9890    16.4790     5.9070 c3         1 VBH      -0.028900
     13 C22         41.6790    15.5430     6.1860 c          1 VBH       0.548200
     14 C24         39.9100    16.9510     7.0160 cc         1 VBH      -0.001400
     15 O2          42.0310    14.4340     5.7990 o          1 VBH      -0.557000
     16 C19         42.0820    17.8740     6.7390 cd         1 VBH      -0.060000
     17 N2          40.3550    15.7630     6.5490 n          1 VBH      -0.267000
     18 C23         39.4350    14.6410     6.4240 c3         1 VBH       0.075300
     19 C18         40.7330    18.0230     7.1460 cd         1 VBH      -0.246200
     20 O1          40.4870    20.3360     6.8530 o          1 VBH      -0.591100
     21 C2          38.8760    20.7730     8.8900 c3         1 VBH       0.016000
     22 C1          37.8870    21.1320     7.7860 c          1 VBH       0.598100
     23 O           37.2500    20.2790     7.1880 o          1 VBH      -0.599100
     24 N           37.7330    22.4440     7.5780 ns         1 VBH      -0.502900
     25 C           36.7780    22.9690     6.6300 c3         1 VBH       0.096300
     26 C3          39.4220    18.5230     9.7510 c3         1 VBH       0.117000
     27 C11         41.8300    18.8010    10.3750 ca         1 VBH      -0.079300
     28 C16         42.4880    19.9480     9.9410 ca         1 VBH      -0.103250
     29 C14         44.4370    18.6600     9.3650 ca         1 VBH      -0.108500
     30 C12         42.4960    17.5800    10.2920 ca         1 VBH      -0.103250
     31 C9          39.4770    16.0590    13.2860 ca         1 VBH      -0.107250
     32 H1          40.2160    19.9280    11.1580 hc         1 VBH       0.058700
     33 H2          41.0760    19.5600    13.3770 ha         1 VBH       0.111500
     34 H3          40.8240    18.2720    15.4580 ha         1 VBH       0.115000
     35 H4          39.7980    16.0150    15.4080 ha         1 VBH       0.114500
     36 H5          39.2760    16.3500    11.1830 ha         1 VBH       0.111500
     37 H7          44.2780    20.7850     9.1060 ha         1 VBH       0.115000
     38 H8          44.5540    17.4050     6.0050 hc         1 VBH       0.045033
     39 H9          44.4660    15.7270     6.5400 hc         1 VBH       0.045033
     40 H10         44.0830    16.1320     4.8770 hc         1 VBH       0.045033
     41 H11         38.8570    16.9980     7.2610 h4         1 VBH       0.211000
     42 H12         42.7510    18.7230     6.8130 ha         1 VBH       0.201000
     43 H13         38.4470    14.9570     6.7430 h1         1 VBH       0.055700
     44 H14         39.3830    14.3020     5.3920 h1         1 VBH       0.055700
     45 H15         39.7580    13.8110     7.0490 h1         1 VBH       0.055700
     46 H16         39.6330    21.5520     9.0150 h1         1 VBH       0.058700
     47 H17         38.3150    20.7300     9.8260 h1         1 VBH       0.058700
     48 H18         38.3200    23.0950     8.0730 hn         1 VBH       0.315500
     49 H19         36.8150    24.0540     6.6680 h1         1 VBH       0.040700
     50 H20         37.0050    22.6530     5.6110 h1         1 VBH       0.040700
     51 H21         35.7620    22.6520     6.8680 h1         1 VBH       0.040700
     52 H22         38.4020    18.4950    10.1420 h1         1 VBH       0.060700
     53 H23         39.6450    17.5280     9.3790 h1         1 VBH       0.060700
     54 H24         41.9870    20.9070    10.0020 ha         1 VBH       0.111500
     55 H25         45.4460    18.6040     8.9770 ha         1 VBH       0.114500
     56 H26         42.0050    16.6730    10.6240 ha         1 VBH       0.111500
     57 H27         39.0270    15.0750    13.2510 ha         1 VBH       0.115000
     58 H6          44.2880    16.5500     9.7330 ha         1 VBH       0.115000
@<TRIPOS>BOND
     1     1    10 1   
     2     1    21 1   
     3     1    26 1   
     4     2     3 1   
     5     2    26 1   
     6     2    27 1   
     7     2    32 1   
     8     3     4 ar  
     9     3     7 ar  
    10     4     5 ar  
    11     4    33 1   
    12     5     6 ar  
    13     5    34 1   
    14     6    31 ar  
    15     6    35 1   
    16     7    31 ar  
    17     7    36 1   
    18     8    29 ar  
    19     8    30 ar  
    20     8    58 1   
    21     9    28 ar  
    22     9    29 ar  
    23     9    37 1   
    24    10    19 1   
    25    10    20 2   
    26    11    12 1   
    27    11    13 1   
    28    11    16 2   
    29    12    38 1   
    30    12    39 1   
    31    12    40 1   
    32    13    15 2   
    33    13    17 1   
    34    14    17 1   
    35    14    19 2   
    36    14    41 1   
    37    16    19 1   
    38    16    42 1   
    39    17    18 1   
    40    18    43 1   
    41    18    44 1   
    42    18    45 1   
    43    21    22 1   
    44    21    46 1   
    45    21    47 1   
    46    22    23 2   
    47    22    24 1   
    48    24    25 1   
    49    24    48 1   
    50    25    49 1   
    51    25    50 1   
    52    25    51 1   
    53    26    52 1   
    54    26    53 1   
    55    27    28 ar  
    56    27    30 ar  
    57    28    54 1   
    58    29    55 1   
    59    30    56 1   
    60    31    57 1   
@<TRIPOS>SUBSTRUCTURE
     1 VBH         1 TEMP              0 ****  ****    0 ROOT
