@<TRIPOS>MOLECULE
VBH
   58    60     1     0     0
SMALL
No Charge or Current Charge


@<TRIPOS>ATOM
      1 N1          39.6130    19.3910     8.5230 n          1 VBH      -0.394800
      2 C4          40.3820    18.9310    10.9040 c3         1 VBH       0.003900
      3 C5          40.1840    18.0730    12.1610 ca         1 VBH      -0.079300
      4 C6          40.1860    18.7000    13.4240 ca         1 VBH      -0.103250
      5 C7          40.0140    17.9470    14.5990 ca         1 VBH      -0.107250
      6 C8          39.8440    16.5560    14.5240 ca         1 VBH      -0.108500
      7 C10         40.0210    16.6700    12.0970 ca         1 VBH      -0.103250
      8 C13         43.9260    18.0240     9.6920 ca         1 VBH      -0.107250
      9 C15         43.9100    20.3610    10.3600 ca         1 VBH      -0.107250
     10 C17         40.5970    19.2360     7.5110 c          1 VBH       0.642300
     11 C20         42.4010    16.3100     5.8420 cc         1 VBH      -0.213400
     12 C21         43.6920    15.9490     5.1400 c3         1 VBH      -0.028900
     13 C22         41.4260    15.1990     5.9880 c          1 VBH       0.548200
     14 C24         39.9700    16.8340     7.0930 cc         1 VBH      -0.001400
     15 O2          41.6400    14.0620     5.5800 o          1 VBH      -0.557000
     16 C19         42.1360    17.5790     6.3210 cd         1 VBH      -0.060000
     17 N2          40.2180    15.5430     6.6270 n          1 VBH      -0.267000
     18 C23         39.1940    14.4830     6.7850 c3         1 VBH       0.075300
     19 C18         40.8990    17.8590     7.0060 cd         1 VBH      -0.246200
     20 O1          41.1840    20.2140     7.0630 o          1 VBH      -0.591100
     21 C2          38.9730    20.7290     8.7020 c3         1 VBH       0.016000
     22 C1          38.1030    21.2130     7.5180 c          1 VBH       0.598100
     23 O           37.8410    20.5230     6.5400 o          1 VBH      -0.599100
     24 N           37.6140    22.4950     7.6520 ns         1 VBH      -0.502900
     25 C           36.7640    23.1610     6.6620 c3         1 VBH       0.096300
     26 C3          39.5370    18.4630     9.6880 c3         1 VBH       0.117000
     27 C11         41.8690    19.0310    10.5490 ca         1 VBH      -0.079300
     28 C16         42.5530    20.2540    10.7080 ca         1 VBH      -0.103250
     29 C14         44.5970    19.2470     9.8500 ca         1 VBH      -0.108500
     30 C12         42.5700    17.9150    10.0430 ca         1 VBH      -0.103250
     31 C9          39.8500    15.9180    13.2730 ca         1 VBH      -0.107250
     32 H1          40.0190    19.9370    11.1470 hc         1 VBH       0.058700
     33 H2          40.3220    19.7770    13.4990 ha         1 VBH       0.111500
     34 H3          40.0150    18.4430    15.5670 ha         1 VBH       0.115000
     35 H4          39.7120    15.9730    15.4330 ha         1 VBH       0.114500
     36 H5          40.0320    16.1480    11.1450 ha         1 VBH       0.111500
     37 H7          44.4290    21.3090    10.4830 ha         1 VBH       0.115000
     38 H8          44.3630    16.8130     5.0640 hc         1 VBH       0.045033
     39 H9          44.2290    15.1620     5.6830 hc         1 VBH       0.045033
     40 H10         43.5000    15.5900     4.1220 hc         1 VBH       0.045033
     41 H11         38.9680    16.9370     7.4980 h4         1 VBH       0.211000
     42 H12         42.8760    18.3680     6.1990 ha         1 VBH       0.201000
     43 H13         38.3190    14.8590     7.3290 h1         1 VBH       0.055700
     44 H14         38.8710    14.1320     5.7960 h1         1 VBH       0.055700
     45 H15         39.6190    13.6400     7.3440 h1         1 VBH       0.055700
     46 H16         39.7530    21.4800     8.8790 h1         1 VBH       0.058700
     47 H17         38.3250    20.7140     9.5880 h1         1 VBH       0.058700
     48 H18         37.8700    23.0020     8.4920 hn         1 VBH       0.315500
     49 H19         36.5200    24.1730     7.0100 h1         1 VBH       0.040700
     50 H20         37.2930    23.2250     5.7030 h1         1 VBH       0.040700
     51 H21         35.8350    22.5900     6.5290 h1         1 VBH       0.040700
     52 H22         38.4860    18.3790     9.9970 h1         1 VBH       0.060700
     53 H23         39.8710    17.4610     9.4160 h1         1 VBH       0.060700
     54 H24         42.0320    21.1260    11.0960 ha         1 VBH       0.111500
     55 H25         45.6470    19.3320     9.5780 ha         1 VBH       0.114500
     56 H26         42.0670    16.9600     9.9130 ha         1 VBH       0.111500
     57 H27         39.7240    14.8390    13.2140 ha         1 VBH       0.115000
     58 H6          44.4560    17.1600     9.2970 ha         1 VBH       0.115000
@<TRIPOS>BOND
     1     1    10 1   
     2     1    21 1   
     3     1    26 1   
     4     2     3 1   
     5     2    26 1   
     6     2    27 1   
     7     2    32 1   
     8     3     4 ar  
     9     3     7 ar  
    10     4     5 ar  
    11     4    33 1   
    12     5     6 ar  
    13     5    34 1   
    14     6    31 ar  
    15     6    35 1   
    16     7    31 ar  
    17     7    36 1   
    18     8    29 ar  
    19     8    30 ar  
    20     8    58 1   
    21     9    28 ar  
    22     9    29 ar  
    23     9    37 1   
    24    10    19 1   
    25    10    20 2   
    26    11    12 1   
    27    11    13 1   
    28    11    16 2   
    29    12    38 1   
    30    12    39 1   
    31    12    40 1   
    32    13    15 2   
    33    13    17 1   
    34    14    17 1   
    35    14    19 2   
    36    14    41 1   
    37    16    19 1   
    38    16    42 1   
    39    17    18 1   
    40    18    43 1   
    41    18    44 1   
    42    18    45 1   
    43    21    22 1   
    44    21    46 1   
    45    21    47 1   
    46    22    23 2   
    47    22    24 1   
    48    24    25 1   
    49    24    48 1   
    50    25    49 1   
    51    25    50 1   
    52    25    51 1   
    53    26    52 1   
    54    26    53 1   
    55    27    28 ar  
    56    27    30 ar  
    57    28    54 1   
    58    29    55 1   
    59    30    56 1   
    60    31    57 1   
@<TRIPOS>SUBSTRUCTURE
     1 VBH         1 TEMP              0 ****  ****    0 ROOT
