@<TRIPOS>MOLECULE
VBJ
   41    43     1     0     0
SMALL
abcg2


@<TRIPOS>ATOM
      1 N1          38.7550   -12.6960    10.3440 nu         1 VBJ      -0.871100
      2 N3          33.7040    -8.6250    15.3060 nv         1 VBJ      -1.076900
      3 C4          35.0900   -12.5840    10.6690 ca         1 VBJ      -0.100000
      4 C5          34.9050   -11.4450    11.4350 ca         1 VBJ      -0.078000
      5 C6          36.0060   -10.6840    11.8230 cp         1 VBJ      -0.124500
      6 C7          35.7830    -9.4700    12.6420 cp         1 VBJ       0.266500
      7 C8          34.6290    -8.5050    14.3430 ca         1 VBJ       0.440900
      8 C10         36.4560    -8.2750    12.3890 ca         1 VBJ      -0.202000
      9 C13         39.1430    -7.4830     9.4570 cx         1 VBJ      -0.049600
     10 C15         38.6860    -7.2430     8.0380 cx         1 VBJ      -0.120900
     11 C1          39.0760   -10.9010     8.2910 c3         1 VBJ      -0.378100
     12 C11         37.3840    -8.0650    11.3400 cg         1 VBJ      -0.090000
     13 C12         38.1830    -7.7870    10.4760 c1         1 VBJ      -0.120100
     14 C14         39.1750    -6.0990     8.8550 cx         1 VBJ      -0.120900
     15 C16         37.2890   -11.0940    11.4730 ca         1 VBJ      -0.099000
     16 C2          37.4690   -12.2350    10.6960 ca         1 VBJ       0.248000
     17 C3          36.3620   -12.9740    10.2860 ca         1 VBJ      -0.137000
     18 C9          36.1170    -7.1890    13.2490 ca         1 VBJ       0.444900
     19 N2          34.8740    -9.5900    13.6020 nb         1 VBJ      -0.294000
     20 N4          35.2160    -7.3160    14.2130 nb         1 VBJ      -0.342000
     21 N5          36.7090    -5.9980    13.1060 nv         1 VBJ      -1.070900
     22 O1          40.3010   -10.7050    10.6100 o          1 VBJ      -0.526500
     23 O2          40.9070   -12.6220     9.1180 o          1 VBJ      -0.526500
     24 S1          39.9030   -11.7110     9.6400 s6         1 VBJ       1.188100
     25 H4          38.7560   -13.6130     9.9070 hn         1 VBJ       0.492000
     26 H8          33.2500    -9.5060    15.4660 hn         1 VBJ       0.505500
     27 H9          33.4950    -7.8540    15.9140 hn         1 VBJ       0.505500
     28 H6          34.2360   -13.1700    10.3550 ha         1 VBJ       0.118000
     29 H7          33.9090   -11.1390    11.7230 ha         1 VBJ       0.133000
     30 H12         40.1010    -7.9800     9.5680 hc         1 VBJ       0.104700
     31 H16         37.6250    -7.3140     7.8380 hc         1 VBJ       0.073950
     32 H15         39.3220    -7.6270     7.2510 hc         1 VBJ       0.073950
     33 H1          38.2520   -10.3020     8.6720 h1         1 VBJ       0.104367
     34 H2          39.8020   -10.2540     7.8010 h1         1 VBJ       0.104367
     35 H3          38.7130   -11.6550     7.5960 h1         1 VBJ       0.104367
     36 H13         40.1490    -5.6820     8.6340 hc         1 VBJ       0.073950
     37 H14         38.4490    -5.3830     9.2170 hc         1 VBJ       0.073950
     38 H17         38.1450   -10.5410    11.8280 ha         1 VBJ       0.157000
     39 H5          36.4990   -13.8560     9.6720 ha         1 VBJ       0.113000
     40 H11         36.3820    -5.2160    13.6470 hn         1 VBJ       0.501500
     41 H10         37.3210    -5.8130    12.3300 hn         1 VBJ       0.501500
@<TRIPOS>BOND
     1     1    16 1   
     2     1    24 1   
     3     1    25 1   
     4     2     7 1   
     5     2    26 1   
     6     2    27 1   
     7     3     4 ar  
     8     3    17 ar  
     9     3    28 1   
    10     4     5 ar  
    11     4    29 1   
    12     5     6 1   
    13     5    15 ar  
    14     6     8 ar  
    15     6    19 ar  
    16     7    19 ar  
    17     7    20 ar  
    18     8    12 1   
    19     8    18 ar  
    20     9    10 1   
    21     9    13 1   
    22     9    14 1   
    23     9    30 1   
    24    10    14 1   
    25    10    31 1   
    26    10    32 1   
    27    11    24 1   
    28    11    33 1   
    29    11    34 1   
    30    11    35 1   
    31    12    13 3   
    32    14    36 1   
    33    14    37 1   
    34    15    16 ar  
    35    15    38 1   
    36    16    17 ar  
    37    17    39 1   
    38    18    20 ar  
    39    18    21 1   
    40    21    40 1   
    41    21    41 1   
    42    22    24 2   
    43    23    24 2   
@<TRIPOS>SUBSTRUCTURE
     1 VBJ         1 TEMP              0 ****  ****    0 ROOT
