@<TRIPOS>MOLECULE
VBJ
   41    43     1     0     0
SMALL
No Charge or Current Charge


@<TRIPOS>ATOM
      1 N1          38.6970   -12.7160    10.2810 nu         1 VBJ      -0.871100
      2 N3          33.7200    -8.6320    15.3750 nv         1 VBJ      -1.076900
      3 C4          35.0150   -12.5460    10.5480 ca         1 VBJ      -0.100000
      4 C5          34.8380   -11.3860    11.3180 ca         1 VBJ      -0.078000
      5 C6          35.9500   -10.6270    11.7650 cp         1 VBJ      -0.124500
      6 C7          35.7490    -9.4080    12.6210 cp         1 VBJ       0.266500
      7 C8          34.6310    -8.4770    14.3920 ca         1 VBJ       0.440900
      8 C10         36.4290    -8.1680    12.4370 ca         1 VBJ      -0.202000
      9 C13         39.1120    -7.4660     9.4150 cx         1 VBJ      -0.049600
     10 C15         38.6310    -7.3720     7.9850 cx         1 VBJ      -0.120900
     11 C1          39.3280   -10.9010     8.3530 c3         1 VBJ      -0.378100
     12 C11         37.3630    -7.9410    11.3620 cg         1 VBJ      -0.090000
     13 C12         38.1540    -7.7360    10.4640 c1         1 VBJ      -0.120100
     14 C14         39.0800    -6.1280     8.7130 cx         1 VBJ      -0.120900
     15 C16         37.2470   -11.0910    11.4160 ca         1 VBJ      -0.099000
     16 C2          37.4330   -12.2480    10.6340 ca         1 VBJ       0.248000
     17 C3          36.3090   -12.9750    10.2110 ca         1 VBJ      -0.137000
     18 C9          36.1110    -7.1370    13.3460 ca         1 VBJ       0.444900
     19 N2          34.8360    -9.5360    13.6050 nb         1 VBJ      -0.294000
     20 N4          35.2170    -7.2830    14.3260 nb         1 VBJ      -0.342000
     21 N5          36.6760    -5.9010    13.2970 nv         1 VBJ      -1.070900
     22 O1          40.3800   -10.9170    10.7930 o          1 VBJ      -0.526500
     23 O2          40.9280   -12.8240     9.2030 o          1 VBJ      -0.526500
     24 S1          39.9860   -11.8310     9.7190 s6         1 VBJ       1.188100
     25 H4          38.7280   -13.5650     9.7330 hn         1 VBJ       0.492000
     26 H8          33.4350    -9.5790    15.6150 hn         1 VBJ       0.505500
     27 H9          33.7100    -7.9520    16.1310 hn         1 VBJ       0.505500
     28 H6          34.1490   -13.1140    10.2150 ha         1 VBJ       0.118000
     29 H7          33.8280   -11.0690    11.5710 ha         1 VBJ       0.133000
     30 H12         40.0890    -7.9160     9.5810 hc         1 VBJ       0.104700
     31 H16         37.5680    -7.4890     7.7900 hc         1 VBJ       0.073950
     32 H15         39.2810    -7.7660     7.2070 hc         1 VBJ       0.073950
     33 H1          38.5160   -10.2780     8.7390 h1         1 VBJ       0.104367
     34 H2          40.1420   -10.2900     7.9500 h1         1 VBJ       0.104367
     35 H3          38.9620   -11.6160     7.6090 h1         1 VBJ       0.104367
     36 H13         40.0310    -5.6870     8.4240 hc         1 VBJ       0.073950
     37 H14         38.3170    -5.4100     9.0050 hc         1 VBJ       0.073950
     38 H17         38.1130   -10.5560    11.7900 ha         1 VBJ       0.157000
     39 H5          36.4330   -13.8760     9.6150 ha         1 VBJ       0.113000
     40 H11         36.2210    -5.1480    13.8070 hn         1 VBJ       0.501500
     41 H10         37.1860    -5.6430    12.4560 hn         1 VBJ       0.501500
@<TRIPOS>BOND
     1     1    16 1   
     2     1    24 1   
     3     1    25 1   
     4     2     7 1   
     5     2    26 1   
     6     2    27 1   
     7     3     4 ar  
     8     3    17 ar  
     9     3    28 1   
    10     4     5 ar  
    11     4    29 1   
    12     5     6 1   
    13     5    15 ar  
    14     6     8 ar  
    15     6    19 ar  
    16     7    19 ar  
    17     7    20 ar  
    18     8    12 1   
    19     8    18 ar  
    20     9    10 1   
    21     9    13 1   
    22     9    14 1   
    23     9    30 1   
    24    10    14 1   
    25    10    31 1   
    26    10    32 1   
    27    11    24 1   
    28    11    33 1   
    29    11    34 1   
    30    11    35 1   
    31    12    13 3   
    32    14    36 1   
    33    14    37 1   
    34    15    16 ar  
    35    15    38 1   
    36    16    17 ar  
    37    17    39 1   
    38    18    20 ar  
    39    18    21 1   
    40    21    40 1   
    41    21    41 1   
    42    22    24 2   
    43    23    24 2   
@<TRIPOS>SUBSTRUCTURE
     1 VBJ         1 TEMP              0 ****  ****    0 ROOT
