@<TRIPOS>MOLECULE
VBK
   22    23     1     0     0
SMALL
abcg2


@<TRIPOS>ATOM
      1 C01         39.5960    25.9660    -5.7970 c6         1 VBK       0.232600
      2 C02         39.3520    25.0730    -4.6080 cc         1 VBK      -0.144300
      3 C03         41.7100    24.1700    -4.7280 c6         1 VBK      -0.036100
      4 C04         40.3430    24.2600    -4.1280 cd         1 VBK      -0.192300
      5 C05         41.6450    24.7820    -6.1260 c6         1 VBK       0.162600
      6 C06         39.1060    27.3880    -5.5770 c3         1 VBK       0.159800
      7 C07         38.1290    24.9390    -3.8820 cc         1 VBK      -0.115000
      8 C08         38.2190    24.0400    -2.8600 cd         1 VBK      -0.234000
      9 N01         39.2830    28.1900    -6.7910 n8         1 VBK      -1.002200
     10 O01         40.9940    26.0500    -6.0930 os         1 VBK      -0.465000
     11 S01         39.7920    23.3360    -2.7740 ss         1 VBK       0.186000
     12 H01         39.0800    25.5530    -6.6770 h1         1 VBK       0.062700
     13 H02         42.0500    23.1340    -4.7960 hc         1 VBK       0.060700
     14 H03         42.4400    24.7110    -4.1180 hc         1 VBK       0.060700
     15 H04         41.1090    24.1090    -6.8070 h1         1 VBK       0.049700
     16 H05         42.6430    24.9590    -6.5230 h1         1 VBK       0.049700
     17 H07         39.6270    27.7960    -4.7010 h1         1 VBK       0.038700
     18 H06         38.0420    27.3540    -5.3400 h1         1 VBK       0.038700
     19 H08         37.2240    25.4860    -4.1090 ha         1 VBK       0.135000
     20 H09         37.4570    23.7530    -2.1530 h4         1 VBK       0.151000
     21 H1          38.9340    29.1290    -6.6310 hn         1 VBK       0.400000
     22 H11         40.2740    28.2840    -6.9880 hn         1 VBK       0.400000
@<TRIPOS>BOND
     1     1     2 1   
     2     1     6 1   
     3     1    10 1   
     4     1    12 1   
     5     2     4 2   
     6     2     7 1   
     7     3     4 1   
     8     3     5 1   
     9     3    13 1   
    10     3    14 1   
    11     4    11 1   
    12     5    10 1   
    13     5    15 1   
    14     5    16 1   
    15     6     9 1   
    16     6    17 1   
    17     6    18 1   
    18     7     8 2   
    19     7    19 1   
    20     8    11 1   
    21     8    20 1   
    22     9    21 1   
    23     9    22 1   
@<TRIPOS>SUBSTRUCTURE
     1 VBK         1 TEMP              0 ****  ****    0 ROOT
