@<TRIPOS>MOLECULE
VBK
   22    23     1     0     0
SMALL
No Charge or Current Charge


@<TRIPOS>ATOM
      1 C01         39.5640    25.9210    -5.8310 c6         1 VBK       0.232600
      2 C02         39.3670    25.0450    -4.6030 cc         1 VBK      -0.144300
      3 C03         41.7260    24.1540    -4.7310 c6         1 VBK      -0.036100
      4 C04         40.3530    24.2390    -4.1040 cd         1 VBK      -0.192300
      5 C05         41.6910    24.7600    -6.1590 c6         1 VBK       0.162600
      6 C06         39.0250    27.3810    -5.6220 c3         1 VBK       0.159800
      7 C07         38.1480    24.9400    -3.8830 cc         1 VBK      -0.115000
      8 C08         38.2090    24.0690    -2.8240 cd         1 VBK      -0.234000
      9 N01         39.2380    28.3070    -6.7690 n8         1 VBK      -1.002200
     10 O01         40.9800    26.0230    -6.1610 os         1 VBK      -0.465000
     11 S01         39.8160    23.3260    -2.6840 ss         1 VBK       0.186000
     12 H01         39.0380    25.4760    -6.6880 h1         1 VBK       0.062700
     13 H02         42.0750    23.1130    -4.7780 hc         1 VBK       0.060700
     14 H03         42.4560    24.7020    -4.1190 hc         1 VBK       0.060700
     15 H04         41.1890    24.0670    -6.8500 h1         1 VBK       0.049700
     16 H05         42.7160    24.9200    -6.5250 h1         1 VBK       0.049700
     17 H07         39.5280    27.8020    -4.7400 h1         1 VBK       0.038700
     18 H06         37.9490    27.3410    -5.4070 h1         1 VBK       0.038700
     19 H08         37.2540    25.4940    -4.1550 ha         1 VBK       0.135000
     20 H09         37.4250    23.8080    -2.1230 h4         1 VBK       0.151000
     21 H1          39.0610    29.2700    -6.4590 hn         1 VBK       0.400000
     22 H11         40.2420    28.3030    -6.9900 hn         1 VBK       0.400000
@<TRIPOS>BOND
     1     1     2 1   
     2     1     6 1   
     3     1    10 1   
     4     1    12 1   
     5     2     4 2   
     6     2     7 1   
     7     3     4 1   
     8     3     5 1   
     9     3    13 1   
    10     3    14 1   
    11     4    11 1   
    12     5    10 1   
    13     5    15 1   
    14     5    16 1   
    15     6     9 1   
    16     6    17 1   
    17     6    18 1   
    18     7     8 2   
    19     7    19 1   
    20     8    11 1   
    21     8    20 1   
    22     9    21 1   
    23     9    22 1   
@<TRIPOS>SUBSTRUCTURE
     1 VBK         1 TEMP              0 ****  ****    0 ROOT
