@<TRIPOS>MOLECULE
VBM
   51    54     1     0     0
SMALL
abcg2


@<TRIPOS>ATOM
      1 C15         -4.2880    -0.8860    -0.8950 ca         1 VBM      -0.085000
      2 C12         -5.2730    -1.3120    -0.0200 ca         1 VBM      -0.070000
      3 C13         -4.9050    -1.9490     1.1620 ca         1 VBM       0.006000
      4 C19         -5.9140    -2.3920     2.0700 cg         1 VBM       0.316000
      5 N20         -6.7280    -2.7490     2.8030 n1         1 VBM      -0.436000
      6 C14         -3.5600    -2.1640     1.4640 ca         1 VBM      -0.070000
      7 C18         -2.5890    -1.7410     0.5770 ca         1 VBM      -0.085000
      8 C11         -2.9470    -1.0980    -0.6040 ca         1 VBM      -0.108300
      9 C9          -1.8880    -0.6190    -1.5740 c6         1 VBM       0.368000
     10 C8          -0.9130    -1.7090    -1.9610 ce         1 VBM      -0.136900
     11 C10          0.3590    -1.7940    -1.5060 c2         1 VBM       0.215800
     12 C17          1.2880    -2.9030    -1.8540 c3         1 VBM      -0.073900
     13 C16         -1.4430    -2.7050    -2.8120 cg         1 VBM       0.292700
     14 N35         -1.9270    -3.4900    -3.5070 n1         1 VBM      -0.437000
     15 N3          -1.0780     0.4450    -1.0190 na         1 VBM      -0.497400
     16 N6          -1.6260     1.5620    -0.4480 na         1 VBM      -0.659200
     17 C5          -0.6540     2.1210     0.3320 cc         1 VBM       0.896200
     18 N7          -0.6750     3.2610     0.9680 nf         1 VBM      -0.713100
     19 C31         -1.7600     4.0570     0.8280 c          1 VBM       0.740500
     20 O32         -2.7490     3.8770     0.1310 o          1 VBM      -0.602000
     21 O33         -1.6190     5.1480     1.5850 os         1 VBM      -0.402100
     22 C34         -2.6730     6.1020     1.5580 c3         1 VBM       0.159900
     23 N2           0.4150     1.2810     0.3760 nc         1 VBM      -0.715000
     24 C1           0.1060     0.2950    -0.4200 cd         1 VBM       0.810100
     25 N4           0.8580    -0.8090    -0.6690 nh         1 VBM      -0.636200
     26 C21          2.1550    -0.8880    -0.0720 ca         1 VBM       0.257000
     27 C26          3.2360    -0.3330    -0.7370 ca         1 VBM      -0.038000
     28 C22          2.3020    -1.5080     1.1570 ca         1 VBM      -0.058000
     29 C23          3.5640    -1.5830     1.7280 ca         1 VBM      -0.106000
     30 C24          4.6580    -1.0400     1.0750 ca         1 VBM      -0.042000
     31 C25          4.4930    -0.4160    -0.1580 ca         1 VBM      -0.190300
     32 C27          5.6920     0.1770    -0.8330 c3         1 VBM       0.361300
     33 F29          6.1790     1.2170    -0.1430 f          1 VBM      -0.108333
     34 F30          6.6860    -0.7140    -0.9360 f          1 VBM      -0.108333
     35 F28          5.4220     0.6130    -2.0650 f          1 VBM      -0.108333
     36 H15         -4.5720    -0.3910    -1.8150 ha         1 VBM       0.120500
     37 H12         -6.3160    -1.1510    -0.2530 ha         1 VBM       0.132500
     38 H14         -3.2800    -2.6620     2.3820 ha         1 VBM       0.132500
     39 H18         -1.5500    -1.9310     0.8180 ha         1 VBM       0.120500
     40 H9          -2.3770    -0.2340    -2.4730 h1         1 VBM       0.091700
     41 H171         0.7980    -3.6480    -2.4740 hc         1 VBM       0.073367
     42 H172         2.1530    -2.5250    -2.4000 hc         1 VBM       0.073367
     43 H173         1.6550    -3.4000    -0.9570 hc         1 VBM       0.073367
     44 H6          -2.3140     2.1040    -0.9560 hn         1 VBM       0.564000
     45 H341        -2.3590     6.9120     2.2110 h1         1 VBM       0.044367
     46 H342        -2.8380     6.4990     0.5550 h1         1 VBM       0.044367
     47 H343        -3.6080     5.6850     1.9330 h1         1 VBM       0.044367
     48 H26          3.0800     0.1490    -1.6920 ha         1 VBM       0.146000
     49 H22          1.4440    -1.9330     1.6600 ha         1 VBM       0.132000
     50 H23          3.6940    -2.0690     2.6850 ha         1 VBM       0.133000
     51 H24          5.6360    -1.1120     1.5340 ha         1 VBM       0.138000
@<TRIPOS>BOND
     1     1     2 ar  
     2     1     8 ar  
     3     1    36 1   
     4     2     3 ar  
     5     2    37 1   
     6     3     4 1   
     7     3     6 ar  
     8     4     5 3   
     9     6     7 ar  
    10     6    38 1   
    11     7     8 ar  
    12     7    39 1   
    13     8     9 1   
    14     9    10 1   
    15     9    15 1   
    16     9    40 1   
    17    10    11 2   
    18    10    13 1   
    19    11    12 1   
    20    11    25 1   
    21    12    41 1   
    22    12    42 1   
    23    12    43 1   
    24    13    14 3   
    25    15    16 1   
    26    15    24 1   
    27    16    17 1   
    28    16    44 1   
    29    17    18 2   
    30    17    23 1   
    31    18    19 1   
    32    19    20 2   
    33    19    21 1   
    34    21    22 1   
    35    22    45 1   
    36    22    46 1   
    37    22    47 1   
    38    23    24 2   
    39    24    25 1   
    40    25    26 1   
    41    26    27 ar  
    42    26    28 ar  
    43    27    31 ar  
    44    27    48 1   
    45    28    29 ar  
    46    28    49 1   
    47    29    30 ar  
    48    29    50 1   
    49    30    31 ar  
    50    30    51 1   
    51    31    32 1   
    52    32    33 1   
    53    32    34 1   
    54    32    35 1   
@<TRIPOS>SUBSTRUCTURE
     1 VBM         1 TEMP              0 ****  ****    0 ROOT
