@<TRIPOS>MOLECULE
VBM
   51    54     1     0     0
SMALL
No Charge or Current Charge


@<TRIPOS>ATOM
      1 C15         -4.2650    -0.8650    -1.0340 ca         1 VBM      -0.085000
      2 C12         -5.2280    -0.9640    -0.0150 ca         1 VBM      -0.070000
      3 C13         -4.8340    -0.9570     1.3370 ca         1 VBM       0.006000
      4 C19         -5.8190    -1.0560     2.3790 cg         1 VBM       0.316000
      5 N20         -6.6170    -1.1280     3.2290 n1         1 VBM      -0.436000
      6 C14         -3.4680    -0.8550     1.6610 ca         1 VBM      -0.070000
      7 C18         -2.5050    -0.7580     0.6420 ca         1 VBM      -0.085000
      8 C11         -2.8960    -0.7560    -0.7140 ca         1 VBM      -0.108300
      9 C9          -1.8480    -0.6440    -1.8350 c6         1 VBM       0.368000
     10 C8          -0.9980    -1.9100    -1.9120 ce         1 VBM      -0.136900
     11 C10          0.3120    -1.9060    -1.5460 c2         1 VBM       0.215800
     12 C17          1.2220    -3.1310    -1.6690 c3         1 VBM      -0.073900
     13 C16         -1.6540    -3.0700    -2.4300 cg         1 VBM       0.292700
     14 N35         -2.2090    -3.9900    -2.8830 n1         1 VBM      -0.437000
     15 N3          -1.0110     0.5580    -1.6470 na         1 VBM      -0.497400
     16 N6          -1.4590     1.8450    -1.3010 na         1 VBM      -0.659200
     17 C5          -0.4350     2.3660    -0.5830 cc         1 VBM       0.896200
     18 N7          -0.3300     3.5340    -0.0860 nf         1 VBM      -0.713100
     19 C31         -1.5090     4.0050     0.4620 c          1 VBM       0.740500
     20 O32         -2.2120     4.8240    -0.1070 o          1 VBM      -0.602000
     21 O33         -1.7520     3.4730     1.6940 os         1 VBM      -0.402100
     22 C34         -2.9580     3.8670     2.3690 c3         1 VBM       0.159900
     23 N2           0.6160     1.5420    -0.4290 nc         1 VBM      -0.715000
     24 C1           0.2560     0.4710    -1.0990 cd         1 VBM       0.810100
     25 N4           0.9030    -0.7510    -1.0100 nh         1 VBM      -0.636200
     26 C21          2.1090    -0.8230    -0.2770 ca         1 VBM       0.257000
     27 C26          3.2850    -0.2330    -0.7790 ca         1 VBM      -0.038000
     28 C22          2.1470    -1.4840     0.9630 ca         1 VBM      -0.058000
     29 C23          3.3450    -1.5560     1.6930 ca         1 VBM      -0.106000
     30 C24          4.5170    -0.9690     1.1870 ca         1 VBM      -0.042000
     31 C25          4.5000    -0.3060    -0.0600 ca         1 VBM      -0.190300
     32 C27          5.7680     0.3500    -0.6170 c3         1 VBM       0.361300
     33 F29          5.8420     1.6530    -0.2650 f          1 VBM      -0.108333
     34 F30          6.8980    -0.2450    -0.1700 f          1 VBM      -0.108333
     35 F28          5.8170     0.3020    -1.9680 f          1 VBM      -0.108333
     36 H15         -4.5880    -0.8700    -2.0730 ha         1 VBM       0.120500
     37 H12         -6.2810    -1.0450    -0.2770 ha         1 VBM       0.132500
     38 H14         -3.1500    -0.8510     2.7020 ha         1 VBM       0.132500
     39 H18         -1.4540    -0.6810     0.9110 ha         1 VBM       0.120500
     40 H9          -2.3710    -0.5240    -2.7950 h1         1 VBM       0.091700
     41 H171         0.9150    -3.7990    -2.4810 hc         1 VBM       0.073367
     42 H172         2.2590    -2.8560    -1.8920 hc         1 VBM       0.073367
     43 H173         1.2180    -3.7160    -0.7420 hc         1 VBM       0.073367
     44 H6          -2.0670     2.3900    -1.9120 hn         1 VBM       0.564000
     45 H341        -3.0300     3.3670     3.3430 h1         1 VBM       0.044367
     46 H342        -2.9740     4.9510     2.5410 h1         1 VBM       0.044367
     47 H343        -3.8430     3.5940     1.7800 h1         1 VBM       0.044367
     48 H26          3.2440     0.2830    -1.7350 ha         1 VBM       0.146000
     49 H22          1.2430    -1.9370     1.3610 ha         1 VBM       0.132000
     50 H23          3.3660    -2.0660     2.6540 ha         1 VBM       0.133000
     51 H24          5.4340    -1.0290     1.7710 ha         1 VBM       0.138000
@<TRIPOS>BOND
     1     1     2 ar  
     2     1     8 ar  
     3     1    36 1   
     4     2     3 ar  
     5     2    37 1   
     6     3     4 1   
     7     3     6 ar  
     8     4     5 3   
     9     6     7 ar  
    10     6    38 1   
    11     7     8 ar  
    12     7    39 1   
    13     8     9 1   
    14     9    10 1   
    15     9    15 1   
    16     9    40 1   
    17    10    11 2   
    18    10    13 1   
    19    11    12 1   
    20    11    25 1   
    21    12    41 1   
    22    12    42 1   
    23    12    43 1   
    24    13    14 3   
    25    15    16 1   
    26    15    24 1   
    27    16    17 1   
    28    16    44 1   
    29    17    18 2   
    30    17    23 1   
    31    18    19 1   
    32    19    20 2   
    33    19    21 1   
    34    21    22 1   
    35    22    45 1   
    36    22    46 1   
    37    22    47 1   
    38    23    24 2   
    39    24    25 1   
    40    25    26 1   
    41    26    27 ar  
    42    26    28 ar  
    43    27    31 ar  
    44    27    48 1   
    45    28    29 ar  
    46    28    49 1   
    47    29    30 ar  
    48    29    50 1   
    49    30    31 ar  
    50    30    51 1   
    51    31    32 1   
    52    32    33 1   
    53    32    34 1   
    54    32    35 1   
@<TRIPOS>SUBSTRUCTURE
     1 VBM         1 TEMP              0 ****  ****    0 ROOT
