@<TRIPOS>MOLECULE
VBN
   90    94     1     0     0
SMALL
No Charge or Current Charge


@<TRIPOS>ATOM
      1 C           -1.8560    -1.7010    -2.1670 c          1 VBN       0.607100
      2 N           -1.5700    -3.5750    -0.4190 n2         1 VBN      -0.725900
      3 O           -2.7720    -1.6780    -2.9830 o          1 VBN      -0.589100
      4 CA          -1.0760    -3.0010    -1.7180 c5         1 VBN       0.024500
      5 CB          -1.3580    -4.1620    -2.7130 c5         1 VBN       0.144300
      6 CAB          7.4730    -0.9190    -2.3730 c3         1 VBN      -0.111100
      7 OAC         -5.4640     4.8410    -1.2980 o          1 VBN      -0.658100
      8 OAD          4.7420    -0.1930     1.2220 o          1 VBN      -0.580100
      9 CAL         -8.0230     3.3870     2.5610 ca         1 VBN      -0.126000
     10 CAM         -4.7430    -7.1500     0.6970 ca         1 VBN      -0.131000
     11 CAN         11.0110     1.7640     1.9570 ca         1 VBN      -0.131000
     12 CAO         -8.8160     4.5440     2.5380 ca         1 VBN      -0.094000
     13 CAP         -4.6880    -6.8750     2.0710 ca         1 VBN      -0.145000
     14 CAQ         10.9630     3.1590     2.1050 ca         1 VBN      -0.091000
     15 CAR         -7.0070     3.2030     1.6060 ca         1 VBN      -0.082000
     16 CAS         -3.9820    -6.3930    -0.2080 ca         1 VBN      -0.055000
     17 CAT          9.9690     1.0850     1.3020 ca         1 VBN      -0.060000
     18 CAU         -3.1860     1.1690    -0.9210 c3         1 VBN      -0.120400
     19 CAV          1.0560    -0.1360    -1.1070 c3         1 VBN      -0.121400
     20 CAW         -3.8410     2.5130    -1.2830 c3         1 VBN       0.102000
     21 CAX          2.1690    -0.1080    -0.0450 c3         1 VBN       0.101000
     22 NBB         -4.9280     2.8460    -0.3640 ns         1 VBN      -0.474900
     23 NBC          3.4700     0.1890    -0.6420 ns         1 VBN      -0.502900
     24 NBD          6.7090     1.6170    -0.4110 n2         1 VBN      -0.725900
     25 OBF          7.8670    -0.3230    -0.0570 os         1 VBN      -0.424600
     26 CBG         -5.6750     3.9980    -0.4330 c          1 VBN       0.625700
     27 CBH          4.6670     0.1220     0.0410 c          1 VBN       0.602100
     28 CBJ         -2.3510    -4.5590    -0.7460 ce         1 VBN       0.704200
     29 CBK         -8.5920     5.5200     1.5570 ca         1 VBN       0.094100
     30 CBL         -3.8670    -5.8390     2.5470 ca         1 VBN       0.080100
     31 CBM          9.8700     3.8740     1.5970 ca         1 VBN       0.092100
     32 CBN         -7.5740     5.3410     0.5950 ca         1 VBN       0.134100
     33 CBO         -3.0940    -5.0710     1.6360 ca         1 VBN       0.196100
     34 CBP          8.8190     3.1980     0.9390 ca         1 VBN       0.130100
     35 CBQ         -6.7640     4.1790     0.6040 ca         1 VBN      -0.232600
     36 CBR         -3.1480    -5.3450     0.2460 ca         1 VBN      -0.236900
     37 CBS          8.8570     1.7910     0.7830 ca         1 VBN      -0.221900
     38 CBU          6.8340    -0.6980    -0.9840 c5         1 VBN       0.143300
     39 CBW          7.7610     1.0420     0.0900 ce         1 VBN       0.705200
     40 CBX          5.8500     0.4990    -0.9210 c5         1 VBN       0.023500
     41 NBY         -1.4050    -0.5040    -1.5320 n          1 VBN      -0.405800
     42 OG1         -2.4280    -4.8830    -2.0800 os         1 VBN      -0.425600
     43 CG2         -0.1640    -5.1230    -2.9090 c3         1 VBN      -0.110100
     44 HA          -0.0020    -2.7800    -1.6840 h1         1 VBN       0.088700
     45 HB          -1.6810    -3.8130    -3.7040 h1         1 VBN       0.095700
     46 HAB          8.2110    -1.7290    -2.3390 hc         1 VBN       0.052700
     47 HABA         6.7120    -1.1940    -3.1130 hc         1 VBN       0.052700
     48 HABB         7.9780    -0.0140    -2.7320 hc         1 VBN       0.052700
     49 HOAF        -9.0310     7.1830     0.7670 ho         1 VBN       0.486000
     50 HOAH         8.9740     5.5170     1.3140 ho         1 VBN       0.484000
     51 HOAI        -6.6230     5.9810    -0.9140 ho         1 VBN       0.535000
     52 HOAK         7.1470     3.2700     0.0300 ho         1 VBN       0.535000
     53 HAL         -8.1950     2.6290     3.3220 ha         1 VBN       0.121000
     54 HAM         -5.3800    -7.9520     0.3290 ha         1 VBN       0.120000
     55 HAN         11.8590     1.2050     2.3500 ha         1 VBN       0.122000
     56 HAO         -9.6010     4.6840     3.2780 ha         1 VBN       0.132000
     57 HAP         -5.2840    -7.4700     2.7600 ha         1 VBN       0.116000
     58 HAQ         11.7700     3.6830     2.6120 ha         1 VBN       0.132000
     59 HAR         -6.4180     2.2910     1.6630 ha         1 VBN       0.107000
     60 HAS         -4.0460    -6.6300    -1.2690 ha         1 VBN       0.130000
     61 HAT         10.0320     0.0030     1.2010 ha         1 VBN       0.129000
     62 HAU         -2.8040     1.2180     0.1060 hc         1 VBN       0.059200
     63 HAUA        -3.9450     0.3780    -0.9470 hc         1 VBN       0.059200
     64 HAV          1.0170     0.8360    -1.6130 hc         1 VBN       0.050200
     65 HAVA         1.3050    -0.8850    -1.8690 hc         1 VBN       0.050200
     66 HAW         -3.0890     3.3130    -1.2460 h1         1 VBN       0.057700
     67 HAWA        -4.2430     2.4650    -2.3050 h1         1 VBN       0.057700
     68 HAX          1.9430     0.6560     0.7110 h1         1 VBN       0.060200
     69 HAXA         2.2220    -1.0840     0.4580 h1         1 VBN       0.060200
     70 HNBB        -5.1570     2.1950     0.3740 hn         1 VBN       0.325500
     71 HNBC         3.5040     0.4750    -1.6130 hn         1 VBN       0.314500
     72 HBU          6.3720    -1.6420    -0.6570 h1         1 VBN       0.093700
     73 HBX          5.4490     0.7380    -1.9160 h1         1 VBN       0.081700
     74 HG2          0.1850    -5.5330    -1.9530 hc         1 VBN       0.052033
     75 HG2A        -0.4400    -5.9630    -3.5570 hc         1 VBN       0.052033
     76 HG2B         0.6800    -4.6050    -3.3790 hc         1 VBN       0.052033
     77 OAG         -3.8290    -5.5900     3.8970 oh         1 VBN      -0.512100
     78 OAJ         -2.2950    -4.0640     2.1050 oh         1 VBN      -0.529100
     79 CAY         -2.0370     0.7930    -1.8770 c3         1 VBN       0.103000
     80 CAZ         -0.3280    -0.4550    -0.5060 c3         1 VBN       0.104000
     81 OAF         -9.3600     6.6500     1.5270 oh         1 VBN      -0.534100
     82 OAI         -7.3790     6.3100    -0.3500 oh         1 VBN      -0.583100
     83 HOAG        -4.4250    -6.2220     4.3520 ho         1 VBN       0.459000
     84 OAH          9.8160     5.2320     1.7380 oh         1 VBN      -0.535100
     85 OAK          7.7670     3.9270     0.4530 oh         1 VBN      -0.575100
     86 HOAJ        -1.8560    -3.6700     1.3050 ho         1 VBN       0.519000
     87 HAY         -2.4120     0.7650    -2.9090 h1         1 VBN       0.059200
     88 HAYA        -1.2730     1.5810    -1.8410 h1         1 VBN       0.059200
     89 HAZ         -0.2820    -1.3860     0.0690 h1         1 VBN       0.060700
     90 HAZA        -0.5760     0.3320     0.2190 h1         1 VBN       0.060700
@<TRIPOS>BOND
     1     1     3 2   
     2     1     4 1   
     3     1    41 1   
     4     2     4 1   
     5     2    28 2   
     6     4     5 1   
     7     4    44 1   
     8     5    42 1   
     9     5    43 1   
    10     5    45 1   
    11     6    38 1   
    12     6    46 1   
    13     6    47 1   
    14     6    48 1   
    15     7    26 2   
    16     8    27 2   
    17     9    12 ar  
    18     9    15 ar  
    19     9    53 1   
    20    10    13 ar  
    21    10    16 ar  
    22    10    54 1   
    23    11    14 ar  
    24    11    17 ar  
    25    11    55 1   
    26    12    29 ar  
    27    12    56 1   
    28    13    30 ar  
    29    13    57 1   
    30    14    31 ar  
    31    14    58 1   
    32    15    35 ar  
    33    15    59 1   
    34    16    36 ar  
    35    16    60 1   
    36    17    37 ar  
    37    17    61 1   
    38    18    20 1   
    39    18    62 1   
    40    18    63 1   
    41    18    79 1   
    42    19    21 1   
    43    19    64 1   
    44    19    65 1   
    45    19    80 1   
    46    20    22 1   
    47    20    66 1   
    48    20    67 1   
    49    21    23 1   
    50    21    68 1   
    51    21    69 1   
    52    22    26 1   
    53    22    70 1   
    54    23    27 1   
    55    23    71 1   
    56    24    39 2   
    57    24    40 1   
    58    25    38 1   
    59    25    39 1   
    60    26    35 1   
    61    27    40 1   
    62    28    36 1   
    63    28    42 1   
    64    29    32 ar  
    65    29    81 1   
    66    30    33 ar  
    67    30    77 1   
    68    31    34 ar  
    69    31    84 1   
    70    32    35 ar  
    71    32    82 1   
    72    33    36 ar  
    73    33    78 1   
    74    34    37 ar  
    75    34    85 1   
    76    37    39 1   
    77    38    40 1   
    78    38    72 1   
    79    40    73 1   
    80    41    79 1   
    81    41    80 1   
    82    43    74 1   
    83    43    75 1   
    84    43    76 1   
    85    49    81 1   
    86    50    84 1   
    87    51    82 1   
    88    52    85 1   
    89    77    83 1   
    90    78    86 1   
    91    79    87 1   
    92    79    88 1   
    93    80    89 1   
    94    80    90 1   
@<TRIPOS>SUBSTRUCTURE
     1 VBN         1 TEMP              0 ****  ****    0 ROOT
