@<TRIPOS>MOLECULE
VBN
   90    94     1     0     0
SMALL
bcc


@<TRIPOS>ATOM
      1 C           -1.7610    -1.5520    -1.3000 c          1 VBN       0.674100
      2 N           -1.7300    -3.4510     0.1790 n2         1 VBN      -0.725900
      3 O           -2.7450    -1.8310    -1.9710 o          1 VBN      -0.589100
      4 CA          -0.9100    -2.7000    -0.7540 c5         1 VBN       0.024500
      5 CB          -0.5650    -3.7300    -1.8560 c5         1 VBN       0.121100
      6 CAB          6.9120    -0.9760    -2.8290 c3         1 VBN      -0.111100
      7 OAC         -5.4800     4.7880    -1.2060 o          1 VBN      -0.658100
      8 OAD          4.7900     0.0800     0.9100 o          1 VBN      -0.580100
      9 CAL         -8.4380     3.5550     2.3410 ca         1 VBN      -0.144000
     10 CAM         -3.8730    -7.7630     0.2180 ca         1 VBN      -0.149000
     11 CAN         11.0800     1.0000     1.4600 ca         1 VBN      -0.149000
     12 CAO         -9.1640     4.7310     2.1570 ca         1 VBN      -0.112000
     13 CAP         -4.5180    -7.4630     1.4180 ca         1 VBN      -0.163000
     14 CAQ         11.0910     2.3450     1.8270 ca         1 VBN      -0.109000
     15 CAR         -7.3570     3.2720     1.5350 ca         1 VBN      -0.100000
     16 CAS         -3.0440    -6.8340    -0.3690 ca         1 VBN      -0.073000
     17 CAT         10.0060     0.4770     0.7720 ca         1 VBN      -0.078000
     18 CAU         -3.3450     1.1970    -0.6510 c3         1 VBN      -0.120400
     19 CAV          1.0280     0.1830    -0.9260 c3         1 VBN      -0.121400
     20 CAW         -4.0910     2.4020    -1.1990 c3         1 VBN       0.102000
     21 CAX          2.1550     0.6420    -0.0140 c3         1 VBN       0.101000
     22 NBB         -5.2020     2.7440    -0.3320 ns         1 VBN      -0.541900
     23 NBC          3.3980     0.7470    -0.7470 ns         1 VBN      -0.569900
     24 NBD          6.7530     1.5050    -0.5890 n2         1 VBN      -0.725900
     25 OBF          7.7330    -0.4970    -0.6030 os         1 VBN      -0.401400
     26 CBG         -5.8340     3.9130    -0.3960 c          1 VBN       0.692700
     27 CBH          4.5990     0.4650    -0.2330 c          1 VBN       0.669100
     28 CBJ         -1.9860    -4.5820    -0.3590 ce         1 VBN       0.704200
     29 CBK         -8.8030     5.6260     1.1690 ca         1 VBN       0.094100
     30 CBL         -4.3340    -6.2400     2.0350 ca         1 VBN       0.080100
     31 CBM         10.0300     3.1710     1.5100 ca         1 VBN       0.092100
     32 CBN         -7.6990     5.3470     0.3440 ca         1 VBN       0.134100
     33 CBO         -3.4840    -5.2820     1.4530 ca         1 VBN       0.196100
     34 CBP          8.9260     2.6510     0.8130 ca         1 VBN       0.130100
     35 CBQ         -6.9770     4.1590     0.5180 ca         1 VBN      -0.232600
     36 CBR         -2.8450    -5.5890     0.2440 ca         1 VBN      -0.236900
     37 CBS          8.9220     1.3000     0.4440 ca         1 VBN      -0.221900
     38 CBU          6.5380    -0.7010    -1.3910 c5         1 VBN       0.120100
     39 CBW          7.7600     0.7860    -0.2640 ce         1 VBN       0.705200
     40 CBX          5.7710     0.6290    -1.1970 c5         1 VBN       0.023500
     41 NBY         -1.4030    -0.2860    -1.0250 n          1 VBN      -0.472800
     42 OG1         -1.4280    -4.8430    -1.5360 os         1 VBN      -0.402400
     43 CG2          0.8780    -4.1750    -1.8280 c3         1 VBN      -0.110100
     44 HA          -0.0000    -2.3610    -0.2580 h1         1 VBN       0.088700
     45 HB          -0.8400    -3.3880    -2.8540 h1         1 VBN       0.095700
     46 HAB          7.5630    -1.8460    -2.9070 hc         1 VBN       0.052700
     47 HABA         6.0090    -1.1810    -3.4040 hc         1 VBN       0.052700
     48 HABB         7.4140    -0.1190    -3.2820 hc         1 VBN       0.052700
     49 HOAF        -9.1180     7.2970     0.3040 ho         1 VBN       0.447000
     50 HOAH         9.2760     4.9260     1.5610 ho         1 VBN       0.445000
     51 HOAI        -6.5830     5.9340    -1.0400 ho         1 VBN       0.496000
     52 HOAK         7.2230     3.0070     0.0470 ho         1 VBN       0.496000
     53 HAL         -8.7260     2.8670     3.1230 ha         1 VBN       0.139000
     54 HAM         -4.0300    -8.7260    -0.2460 ha         1 VBN       0.138000
     55 HAN         11.9190     0.3690     1.7180 ha         1 VBN       0.140000
     56 HAO        -10.0140     4.9550     2.7900 ha         1 VBN       0.150000
     57 HAP         -5.1710    -8.1960     1.8770 ha         1 VBN       0.134000
     58 HAQ         11.9360     2.7570     2.3650 ha         1 VBN       0.150000
     59 HAR         -6.8080     2.3580     1.7160 ha         1 VBN       0.125000
     60 HAS         -2.5480    -7.0660    -1.3010 ha         1 VBN       0.148000
     61 HAT         10.0010    -0.5660     0.4870 ha         1 VBN       0.147000
     62 HAU         -2.9610     1.4310     0.3460 hc         1 VBN       0.059200
     63 HAUA        -4.0270     0.3490    -0.5470 hc         1 VBN       0.059200
     64 HAV          0.9140     0.8810    -1.7610 hc         1 VBN       0.050200
     65 HAVA         1.2820    -0.7890    -1.3570 hc         1 VBN       0.050200
     66 HAW         -3.4170     3.2570    -1.2680 h1         1 VBN       0.057700
     67 HAWA        -4.4530     2.1940    -2.2110 h1         1 VBN       0.057700
     68 HAX          1.9000     1.6050     0.4390 h1         1 VBN       0.060200
     69 HAXA         2.2930    -0.0690     0.7990 h1         1 VBN       0.060200
     70 HNBB        -5.5690     2.0130     0.2550 hn         1 VBN       0.325500
     71 HNBC         3.3550     1.1220    -1.6820 hn         1 VBN       0.314500
     72 HBU          6.0150    -1.5560    -0.9620 h1         1 VBN       0.093700
     73 HBX          5.4380     1.0360    -2.1550 h1         1 VBN       0.081700
     74 HG2          1.1800    -4.5020    -0.8320 hc         1 VBN       0.052033
     75 HG2A         1.0550    -4.9880    -2.5320 hc         1 VBN       0.052033
     76 HG2B         1.5200    -3.3420    -2.1200 hc         1 VBN       0.052033
     77 OAG         -4.9250    -5.8860     3.1940 oh         1 VBN      -0.473100
     78 OAJ         -3.3370    -4.1240     2.0960 oh         1 VBN      -0.490100
     79 CAY         -2.1950     0.8060    -1.5700 c3         1 VBN       0.103000
     80 CAZ         -0.2890     0.0920    -0.1670 c3         1 VBN       0.104000
     81 OAF         -9.5100     6.7620     1.0050 oh         1 VBN      -0.495100
     82 OAI         -7.4030     6.2640    -0.5820 oh         1 VBN      -0.544100
     83 HOAG        -5.5010    -6.5950     3.5000 ho         1 VBN       0.420000
     84 OAH         10.0650     4.4680     1.8770 oh         1 VBN      -0.496100
     85 OAK          7.9320     3.5020     0.5400 oh         1 VBN      -0.536100
     86 HOAJ        -2.7090    -3.5580     1.5770 ho         1 VBN       0.480000
     87 HAY         -2.5710     0.5260    -2.5530 h1         1 VBN       0.059200
     88 HAYA        -1.5260     1.6570    -1.7170 h1         1 VBN       0.059200
     89 HAZ         -0.2090    -0.5890     0.6800 h1         1 VBN       0.060700
     90 HAZA        -0.5330     1.0630     0.2670 h1         1 VBN       0.060700
@<TRIPOS>BOND
     1     1     3 2   
     2     1     4 1   
     3     1    41 1   
     4     2     4 1   
     5     2    28 2   
     6     4     5 1   
     7     4    44 1   
     8     5    42 1   
     9     5    43 1   
    10     5    45 1   
    11     6    38 1   
    12     6    46 1   
    13     6    47 1   
    14     6    48 1   
    15     7    26 2   
    16     8    27 2   
    17     9    12 ar  
    18     9    15 ar  
    19     9    53 1   
    20    10    13 ar  
    21    10    16 ar  
    22    10    54 1   
    23    11    14 ar  
    24    11    17 ar  
    25    11    55 1   
    26    12    29 ar  
    27    12    56 1   
    28    13    30 ar  
    29    13    57 1   
    30    14    31 ar  
    31    14    58 1   
    32    15    35 ar  
    33    15    59 1   
    34    16    36 ar  
    35    16    60 1   
    36    17    37 ar  
    37    17    61 1   
    38    18    20 1   
    39    18    62 1   
    40    18    63 1   
    41    18    79 1   
    42    19    21 1   
    43    19    64 1   
    44    19    65 1   
    45    19    80 1   
    46    20    22 1   
    47    20    66 1   
    48    20    67 1   
    49    21    23 1   
    50    21    68 1   
    51    21    69 1   
    52    22    26 1   
    53    22    70 1   
    54    23    27 1   
    55    23    71 1   
    56    24    39 2   
    57    24    40 1   
    58    25    38 1   
    59    25    39 1   
    60    26    35 1   
    61    27    40 1   
    62    28    36 1   
    63    28    42 1   
    64    29    32 ar  
    65    29    81 1   
    66    30    33 ar  
    67    30    77 1   
    68    31    34 ar  
    69    31    84 1   
    70    32    35 ar  
    71    32    82 1   
    72    33    36 ar  
    73    33    78 1   
    74    34    37 ar  
    75    34    85 1   
    76    37    39 1   
    77    38    40 1   
    78    38    72 1   
    79    40    73 1   
    80    41    79 1   
    81    41    80 1   
    82    43    74 1   
    83    43    75 1   
    84    43    76 1   
    85    49    81 1   
    86    50    84 1   
    87    51    82 1   
    88    52    85 1   
    89    77    83 1   
    90    78    86 1   
    91    79    87 1   
    92    79    88 1   
    93    80    89 1   
    94    80    90 1   
@<TRIPOS>SUBSTRUCTURE
     1 VBN         1 TEMP              0 ****  ****    0 ROOT
