@<TRIPOS>MOLECULE
VBO
   24    24     1     0     0
SMALL
abcg2


@<TRIPOS>ATOM
      1 N1          44.5920    24.1680    23.9240 ns         1 VBO      -0.467500
      2 C7          43.7830    25.1610    24.4320 c          1 VBO       0.622000
      3 O1          44.9890    28.0790    25.5310 o          1 VBO      -0.465000
      4 C1          44.9030    27.8880    26.7230 c          1 VBO       0.584100
      5 C5          45.1680    23.3090    26.0580 cc         1 VBO      -0.374200
      6 C6          45.3200    23.2120    24.6280 c          1 VBO       0.586200
      7 C4          44.4000    24.2870    26.5770 cd         1 VBO      -0.000400
      8 O3          43.1560    25.9150    23.7050 o          1 VBO      -0.542000
      9 C2          43.7830    27.1420    27.4080 c3         1 VBO      -0.162400
     10 O2          45.9990    22.3870    24.0240 o          1 VBO      -0.530000
     11 N           43.7430    25.2160    25.8170 n          1 VBO      -0.318000
     12 O           45.7950    28.3370    27.6120 os         1 VBO      -0.454100
     13 C           46.9030    29.1010    27.0890 c3         1 VBO       0.153900
     14 H1          44.6400    24.1250    22.9140 hn         1 VBO       0.344500
     15 H2          45.6700    22.5950    26.6910 ha         1 VBO       0.223000
     16 H3          44.2610    24.3850    27.6440 h4         1 VBO       0.201000
     17 H4          42.5190    26.8690    25.6780 h1         1 VBO       0.082700
     18 H5          42.1470    25.8050    27.0350 h1         1 VBO       0.082700
     19 H6          43.1200    27.8910    27.8520 hc         1 VBO       0.080700
     20 H7          44.1930    26.5760    28.2440 hc         1 VBO       0.080700
     21 H8          47.5070    29.3620    27.9530 h1         1 VBO       0.053033
     22 H9          47.4770    28.4970    26.3880 h1         1 VBO       0.053033
     23 H10         46.5370    29.9980    26.5910 h1         1 VBO       0.053033
     24 C3          42.9540    26.2730    26.4720 c3         1 VBO       0.113000
@<TRIPOS>BOND
     1     1     2 1   
     2     1     6 1   
     3     1    14 1   
     4     2     8 2   
     5     2    11 1   
     6     3     4 2   
     7     4     9 1   
     8     4    12 1   
     9     5     6 1   
    10     5     7 2   
    11     5    15 1   
    12     6    10 2   
    13     7    11 1   
    14     7    16 1   
    15     9    19 1   
    16     9    20 1   
    17     9    24 1   
    18    11    24 1   
    19    12    13 1   
    20    13    21 1   
    21    13    22 1   
    22    13    23 1   
    23    17    24 1   
    24    18    24 1   
@<TRIPOS>SUBSTRUCTURE
     1 VBO         1 TEMP              0 ****  ****    0 ROOT
