@<TRIPOS>MOLECULE
VBO
   24    24     1     0     0
SMALL
No Charge or Current Charge


@<TRIPOS>ATOM
      1 N1          45.2220    24.5550    24.2470 ns         1 VBO      -0.467500
      2 C7          44.3310    25.4860    24.6840 c          1 VBO       0.622000
      3 O1          44.1850    29.1780    26.2200 o          1 VBO      -0.465000
      4 C1          44.4870    28.1610    26.8290 c          1 VBO       0.584100
      5 C5          45.1010    23.2940    26.2340 cc         1 VBO      -0.374200
      6 C6          45.6730    23.4550    24.9010 c          1 VBO       0.586200
      7 C4          44.1940    24.1900    26.7490 cd         1 VBO      -0.000400
      8 O3          44.0240    26.4280    23.9730 o          1 VBO      -0.542000
      9 C2          43.4690    27.2630    27.5260 c3         1 VBO      -0.162400
     10 O2          46.4790    22.6890    24.4040 o          1 VBO      -0.530000
     11 N           43.8080    25.2880    25.9840 n          1 VBO      -0.318000
     12 O           45.7660    27.6900    26.9710 os         1 VBO      -0.454100
     13 C           46.8310    28.4250    26.3400 c3         1 VBO       0.153900
     14 H1          45.5920    24.7020    23.3220 hn         1 VBO       0.344500
     15 H2          45.4360    22.4250    26.7890 ha         1 VBO       0.223000
     16 H3          43.7340    24.1250    27.7340 h4         1 VBO       0.201000
     17 H4          42.3460    26.8180    25.7220 h1         1 VBO       0.082700
     18 H5          42.0430    25.7090    27.0520 h1         1 VBO       0.082700
     19 H6          42.6740    27.8860    27.9500 hc         1 VBO       0.080700
     20 H7          43.9670    26.6850    28.3130 hc         1 VBO       0.080700
     21 H8          47.7960    27.9390    26.5310 h1         1 VBO       0.053033
     22 H9          46.6840    28.4710    25.2530 h1         1 VBO       0.053033
     23 H10         46.8840    29.4500    26.7280 h1         1 VBO       0.053033
     24 C3          42.8360    26.2650    26.5340 c3         1 VBO       0.113000
@<TRIPOS>BOND
     1     1     2 1   
     2     1     6 1   
     3     1    14 1   
     4     2     8 2   
     5     2    11 1   
     6     3     4 2   
     7     4     9 1   
     8     4    12 1   
     9     5     6 1   
    10     5     7 2   
    11     5    15 1   
    12     6    10 2   
    13     7    11 1   
    14     7    16 1   
    15     9    19 1   
    16     9    20 1   
    17     9    24 1   
    18    11    24 1   
    19    12    13 1   
    20    13    21 1   
    21    13    22 1   
    22    13    23 1   
    23    17    24 1   
    24    18    24 1   
@<TRIPOS>SUBSTRUCTURE
     1 VBO         1 TEMP              0 ****  ****    0 ROOT
