@<TRIPOS>MOLECULE
VBP
   37    38     1     0     0
SMALL
No Charge or Current Charge


@<TRIPOS>ATOM
      1 C10         -0.9410     1.1880    -1.6440 c3         1 VBP       0.153300
      2 C11         -2.1550     0.4980    -1.0270 ca         1 VBP      -0.133300
      3 C12         -3.1100     1.2420    -0.3090 ca         1 VBP      -0.119000
      4 C13         -4.2280     0.6090     0.2600 ca         1 VBP      -0.098000
      5 C14         -4.4200    -0.7860     0.1220 ca         1 VBP      -0.131600
      6 C15         -3.4560    -1.5250    -0.6040 ca         1 VBP      -0.098000
      7 C16         -2.3390    -0.8890    -1.1710 ca         1 VBP      -0.119000
      8 C17         -5.6320    -1.4730     0.7370 c          1 VBP       0.713600
      9 C20          1.0790     0.3610    -0.4600 c          1 VBP       0.605000
     10 C22          5.1230    -1.8650     0.0470 c          1 VBP       0.697000
     11 N01          5.2050     0.7500     0.2310 n8         1 VBP      -1.011200
     12 C02          4.3730    -0.4840    -0.0750 c3         1 VBP      -0.015500
     13 N04          2.1120     0.5690     0.4820 n          1 VBP      -0.280000
     14 C05          2.2360     1.7720     1.1610 cc         1 VBP       0.056600
     15 C06          1.3380     2.7790     0.9230 cd         1 VBP      -0.450200
     16 C07          0.2370     2.6470    -0.0280 c          1 VBP       0.598200
     17 O08         -0.5450     3.5650    -0.2250 o          1 VBP      -0.583000
     18 N09          0.1670     1.4100    -0.6790 n          1 VBP      -0.368400
     19 O18         -5.7590    -2.6810     0.5910 o          1 VBP      -0.731500
     20 O19         -6.4390    -0.7950     1.3570 o          1 VBP      -0.731500
     21 H10         -0.5750     0.5900    -2.4900 h1         1 VBP       0.057200
     22 H10A        -1.2580     2.1450    -2.0790 h1         1 VBP       0.057200
     23 H12         -2.9870     2.3160    -0.1910 ha         1 VBP       0.095500
     24 H13         -4.9490     1.2100     0.8100 ha         1 VBP       0.120000
     25 H15         -3.5710    -2.5990    -0.7310 ha         1 VBP       0.120000
     26 H16         -1.6130    -1.4800    -1.7250 ha         1 VBP       0.095500
     27 HN01         5.6530     0.6270     1.1490 hn         1 VBP       0.385500
     28 HN0A         6.0050     0.7860    -0.4140 hn         1 VBP       0.385500
     29 H02          4.0640    -0.4050    -1.1270 h1         1 VBP       0.059700
     30 H05          3.0800     1.8060     1.8450 h4         1 VBP       0.200000
     31 H06          1.4010     3.7360     1.4290 ha         1 VBP       0.198000
     32 C03          3.0640    -0.5410     0.7620 c3         1 VBP       0.121000
     33 O23          5.3700    -2.4830    -0.9790 o          1 VBP      -0.725000
     34 H03          2.5690    -1.5040     0.5830 h1         1 VBP       0.069200
     35 H03A         3.3210    -0.5260     1.8290 h1         1 VBP       0.069200
     36 O21          0.9870    -0.6970    -1.0710 o          1 VBP      -0.537000
     37 O24          5.4990    -2.2250     1.1550 o          1 VBP      -0.725000
@<TRIPOS>BOND
     1     1     2 1   
     2     1    18 1   
     3     1    21 1   
     4     1    22 1   
     5     2     3 ar  
     6     2     7 ar  
     7     3     4 ar  
     8     3    23 1   
     9     4     5 ar  
    10     4    24 1   
    11     5     6 ar  
    12     5     8 1   
    13     6     7 ar  
    14     6    25 1   
    15     7    26 1   
    16     8    19 1   
    17     8    20 1   
    18     9    13 1   
    19     9    18 1   
    20     9    36 2   
    21    10    12 1   
    22    10    33 1   
    23    10    37 1   
    24    11    12 1   
    25    11    27 1   
    26    11    28 1   
    27    12    29 1   
    28    12    32 1   
    29    13    14 1   
    30    13    32 1   
    31    14    15 2   
    32    14    30 1   
    33    15    16 1   
    34    15    31 1   
    35    16    17 2   
    36    16    18 1   
    37    32    34 1   
    38    32    35 1   
@<TRIPOS>SUBSTRUCTURE
     1 VBP         1 TEMP              0 ****  ****    0 ROOT
