@<TRIPOS>MOLECULE
VBP
   37    38     1     0     0
SMALL
bcc


@<TRIPOS>ATOM
      1 C10         -0.8220     1.1990    -1.6230 c3         1 VBP       0.153300
      2 C11         -2.0050     0.4730    -1.0400 ca         1 VBP      -0.133300
      3 C12         -2.7620     1.0470    -0.0210 ca         1 VBP      -0.137000
      4 C13         -3.8640     0.3860     0.4990 ca         1 VBP      -0.116000
      5 C14         -4.2520    -0.8600     0.0100 ca         1 VBP      -0.131600
      6 C15         -3.4960    -1.4280    -1.0110 ca         1 VBP      -0.116000
      7 C16         -2.3850    -0.7740    -1.5250 ca         1 VBP      -0.137000
      8 C17         -5.4720    -1.5770     0.5750 c          1 VBP       0.924200
      9 C20          1.0180     0.3550    -0.3120 c          1 VBP       0.814500
     10 C22          4.9910    -1.7750     0.3750 c          1 VBP       0.907600
     11 N01          4.7690     0.7280    -0.0310 n8         1 VBP      -0.900800
     12 C02          4.1060    -0.5610    -0.0150 c3         1 VBP      -0.015500
     13 N04          1.9940     0.5700     0.6320 n          1 VBP      -0.347000
     14 C05          2.2010     1.8010     1.1620 cc         1 VBP       0.106600
     15 C06          1.4430     2.8660     0.8460 cd         1 VBP      -0.400200
     16 C07          0.3750     2.7280    -0.1030 c          1 VBP       0.740700
     17 O08         -0.3730     3.6330    -0.4370 o          1 VBP      -0.658500
     18 N09          0.2340     1.4450    -0.6410 n          1 VBP      -0.502400
     19 O18         -5.7690    -2.6700     0.0550 o          1 VBP      -0.836800
     20 O19         -6.0700    -1.0090     1.5100 o          1 VBP      -0.836800
     21 H10         -0.4040     0.6390    -2.4570 h1         1 VBP       0.057200
     22 H10A        -1.1290     2.1690    -2.0080 h1         1 VBP       0.057200
     23 H12         -2.4980     2.0240     0.3660 ha         1 VBP       0.113500
     24 H13         -4.4400     0.8490     1.2890 ha         1 VBP       0.138000
     25 H15         -3.7750    -2.3960    -1.4060 ha         1 VBP       0.138000
     26 H16         -1.8050    -1.2390    -2.3130 ha         1 VBP       0.113500
     27 HN01         5.4620     0.7360     0.7100 hn         1 VBP       0.330300
     28 HN0A         5.3030     0.8180    -0.8860 hn         1 VBP       0.330300
     29 H02          3.7070    -0.7510    -1.0170 h1         1 VBP       0.059700
     30 H05          2.9990     1.8700     1.8850 h4         1 VBP       0.150000
     31 H06          1.6190     3.8260     1.3050 ha         1 VBP       0.148000
     32 C03          2.9170    -0.5140     0.9490 c3         1 VBP       0.121000
     33 O23          4.4470    -2.8930     0.2720 o          1 VBP      -0.830300
     34 H03          2.3760    -1.4550     0.9400 h1         1 VBP       0.069200
     35 H03A         3.2670    -0.3470     1.9690 h1         1 VBP       0.069200
     36 O21          0.8500    -0.7300    -0.8310 o          1 VBP      -0.612500
     37 O24          6.1470    -1.5370     0.7720 o          1 VBP      -0.830300
@<TRIPOS>BOND
     1     1     2 1   
     2     1    18 1   
     3     1    21 1   
     4     1    22 1   
     5     2     3 ar  
     6     2     7 ar  
     7     3     4 ar  
     8     3    23 1   
     9     4     5 ar  
    10     4    24 1   
    11     5     6 ar  
    12     5     8 1   
    13     6     7 ar  
    14     6    25 1   
    15     7    26 1   
    16     8    19 1   
    17     8    20 1   
    18     9    13 1   
    19     9    18 1   
    20     9    36 2   
    21    10    12 1   
    22    10    33 1   
    23    10    37 1   
    24    11    12 1   
    25    11    27 1   
    26    11    28 1   
    27    12    29 1   
    28    12    32 1   
    29    13    14 1   
    30    13    32 1   
    31    14    15 2   
    32    14    30 1   
    33    15    16 1   
    34    15    31 1   
    35    16    17 2   
    36    16    18 1   
    37    32    34 1   
    38    32    35 1   
@<TRIPOS>SUBSTRUCTURE
     1 VBP         1 TEMP              0 ****  ****    0 ROOT
