@<TRIPOS>MOLECULE
VBQ
   31    33     1     0     0
SMALL
abcg2


@<TRIPOS>ATOM
      1 C1         -43.6130    23.8080    -9.9110 c          1 VBQ       0.603300
      2 C10        -43.9370    20.4570   -11.3830 ca         1 VBQ      -0.108600
      3 C11        -43.7370    19.0190   -10.9960 c          1 VBQ       0.586700
      4 C12        -42.1040    17.4240   -10.0600 c3         1 VBQ      -0.057000
      5 C13        -40.6980    17.5180    -9.4270 c          1 VBQ       0.704000
      6 C14        -44.3520    20.7270   -12.6970 ca         1 VBQ      -0.053000
      7 C15        -44.5240    22.0240   -13.1590 ca         1 VBQ      -0.141000
      8 C16        -44.2930    23.1050   -12.3060 ca         1 VBQ      -0.044000
      9 C2         -43.9100    22.8420   -11.0070 ca         1 VBQ      -0.192600
     10 C3         -43.7360    21.5300   -10.5230 cp         1 VBQ       0.021000
     11 C4         -43.3720    21.6130    -9.0810 cp         1 VBQ      -0.013000
     12 C5         -43.1640    20.6430    -8.1130 ca         1 VBQ      -0.060000
     13 C6         -42.8430    21.0490    -6.8130 ca         1 VBQ      -0.077000
     14 C7         -42.7360    22.3950    -6.4770 ca         1 VBQ      -0.129000
     15 C8         -42.9650    23.3760    -7.4420 ca         1 VBQ      -0.053000
     16 C9         -43.2830    22.9720    -8.7250 ca         1 VBQ      -0.185600
     17 N1         -42.5060    18.7120   -10.5810 ns         1 VBQ      -0.457900
     18 O1         -43.6360    25.0230    -9.9760 o          1 VBQ      -0.525100
     19 O2         -40.1320    18.6400    -9.4580 o          1 VBQ      -0.724500
     20 O3         -40.2570    16.4540    -8.9380 o          1 VBQ      -0.724500
     21 O4         -44.6550    18.1980   -11.0930 o          1 VBQ      -0.649100
     22 H6         -42.8130    17.0820    -9.3020 h1         1 VBQ       0.038700
     23 H7         -42.0860    16.6680   -10.8490 h1         1 VBQ       0.038700
     24 H8         -44.5260    19.8930   -13.3650 ha         1 VBQ       0.127000
     25 H9         -44.8310    22.1940   -14.1820 ha         1 VBQ       0.110000
     26 H10        -44.4150    24.1250   -12.6480 ha         1 VBQ       0.120000
     27 H1         -43.2420    19.5900    -8.3370 ha         1 VBQ       0.150000
     28 H2         -42.6750    20.2950    -6.0550 ha         1 VBQ       0.120000
     29 H3         -42.4840    22.6780    -5.4630 ha         1 VBQ       0.108000
     30 H4         -42.9020    24.4280    -7.1960 ha         1 VBQ       0.118000
     31 H5         -41.7880    19.4220   -10.4990 hn         1 VBQ       0.349500
@<TRIPOS>BOND
     1     1     9 1   
     2     1    16 1   
     3     1    18 2   
     4     2     3 1   
     5     2     6 ar  
     6     2    10 ar  
     7     3    17 1   
     8     3    21 2   
     9     4     5 1   
    10     4    17 1   
    11     4    22 1   
    12     4    23 1   
    13     5    19 1   
    14     5    20 1   
    15     6     7 ar  
    16     6    24 1   
    17     7     8 ar  
    18     7    25 1   
    19     8     9 ar  
    20     8    26 1   
    21     9    10 ar  
    22    10    11 1   
    23    11    12 ar  
    24    11    16 ar  
    25    12    13 ar  
    26    12    27 1   
    27    13    14 ar  
    28    13    28 1   
    29    14    15 ar  
    30    14    29 1   
    31    15    16 ar  
    32    15    30 1   
    33    17    31 1   
@<TRIPOS>SUBSTRUCTURE
     1 VBQ         1 TEMP              0 ****  ****    0 ROOT
