@<TRIPOS>MOLECULE
VBQ
   31    33     1     0     0
SMALL
No Charge or Current Charge


@<TRIPOS>ATOM
      1 C1         -43.5060    23.7570    -9.9310 c          1 VBQ       0.603300
      2 C10        -44.0220    20.4480   -11.4360 ca         1 VBQ      -0.108600
      3 C11        -43.7740    19.0430   -10.9760 c          1 VBQ       0.586700
      4 C12        -42.0060    17.4790   -10.0430 c3         1 VBQ      -0.057000
      5 C13        -40.6030    17.5860    -9.3850 c          1 VBQ       0.704000
      6 C14        -44.4730    20.7170   -12.7480 ca         1 VBQ      -0.053000
      7 C15        -44.6100    22.0480   -13.2010 ca         1 VBQ      -0.141000
      8 C16        -44.2980    23.1270   -12.3510 ca         1 VBQ      -0.044000
      9 C2         -43.8860    22.8310   -11.0450 ca         1 VBQ      -0.192600
     10 C3         -43.7660    21.5260   -10.5440 cp         1 VBQ       0.021000
     11 C4         -43.3940    21.5900    -9.1000 cp         1 VBQ      -0.013000
     12 C5         -43.2990    20.5900    -8.1020 ca         1 VBQ      -0.060000
     13 C6         -42.9470    20.9600    -6.7850 ca         1 VBQ      -0.077000
     14 C7         -42.7210    22.3140    -6.4500 ca         1 VBQ      -0.129000
     15 C8         -42.8640    23.3220    -7.4220 ca         1 VBQ      -0.053000
     16 C9         -43.2070    22.9270    -8.7220 ca         1 VBQ      -0.185600
     17 N1         -42.4990    18.7920   -10.5210 ns         1 VBQ      -0.457900
     18 O1         -43.4570    24.9790    -9.9950 o          1 VBQ      -0.525100
     19 O2         -39.8040    18.3910    -9.8440 o          1 VBQ      -0.724500
     20 O3         -40.3740    16.8930    -8.4040 o          1 VBQ      -0.724500
     21 O4         -44.6280    18.1690   -11.0440 o          1 VBQ      -0.649100
     22 H6         -42.7140    17.0740    -9.3090 h1         1 VBQ       0.038700
     23 H7         -41.9400    16.7880   -10.8930 h1         1 VBQ       0.038700
     24 H8         -44.6870    19.8930   -13.4260 ha         1 VBQ       0.127000
     25 H9         -44.9420    22.2420   -14.2190 ha         1 VBQ       0.110000
     26 H10        -44.3850    24.1560   -12.6950 ha         1 VBQ       0.120000
     27 H1         -43.5120    19.5490    -8.3170 ha         1 VBQ       0.150000
     28 H2         -42.8630    20.1940    -6.0170 ha         1 VBQ       0.120000
     29 H3         -42.4580    22.5820    -5.4290 ha         1 VBQ       0.108000
     30 H4         -42.7280    24.3720    -7.1690 ha         1 VBQ       0.118000
     31 H5         -41.8460    19.5690   -10.5390 hn         1 VBQ       0.349500
@<TRIPOS>BOND
     1     1     9 1   
     2     1    16 1   
     3     1    18 2   
     4     2     3 1   
     5     2     6 ar  
     6     2    10 ar  
     7     3    17 1   
     8     3    21 2   
     9     4     5 1   
    10     4    17 1   
    11     4    22 1   
    12     4    23 1   
    13     5    19 1   
    14     5    20 1   
    15     6     7 ar  
    16     6    24 1   
    17     7     8 ar  
    18     7    25 1   
    19     8     9 ar  
    20     8    26 1   
    21     9    10 ar  
    22    10    11 1   
    23    11    12 ar  
    24    11    16 ar  
    25    12    13 ar  
    26    12    27 1   
    27    13    14 ar  
    28    13    28 1   
    29    14    15 ar  
    30    14    29 1   
    31    15    16 ar  
    32    15    30 1   
    33    17    31 1   
@<TRIPOS>SUBSTRUCTURE
     1 VBQ         1 TEMP              0 ****  ****    0 ROOT
