@<TRIPOS>MOLECULE
VBR
   21    22     1     0     0
SMALL
abcg2


@<TRIPOS>ATOM
      1 N1          15.4330     5.1490    -3.3560 na         1 VBR      -0.245700
      2 C4          17.1680     6.2010    -4.3340 ca         1 VBR      -0.104800
      3 C5          17.7710     6.9920    -5.3170 ca         1 VBR      -0.055000
      4 C6          17.0150     7.5300    -6.3540 ca         1 VBR      -0.120600
      5 C7          17.6960     8.4310    -7.3790 c          1 VBR       0.715600
      6 C8          15.6420     7.2360    -6.4020 ca         1 VBR       0.184000
      7 C10         15.7740     5.9420    -4.4260 ca         1 VBR      -0.052200
      8 C2          16.5520     4.8960    -2.5870 cc         1 VBR      -0.099300
      9 C3          17.6320     5.5240    -3.1570 cd         1 VBR      -0.226200
     10 C9          14.9980     6.4450    -5.4640 ca         1 VBR      -0.164000
     11 O1          18.4680     7.8720    -8.1960 o          1 VBR      -0.710000
     12 O2          17.4460     9.6580    -7.2980 o          1 VBR      -0.710000
     13 CL1         14.6700     7.8560    -7.7380 cl         1 VBR      -0.238000
     14 H1          14.5070     4.8090    -3.1530 hn         1 VBR       0.330000
     15 H2          18.8340     7.1970    -5.2760 ha         1 VBR       0.121000
     16 H3          16.0970     3.0570    -1.5890 hc         1 VBR       0.034700
     17 H4          17.4430     3.9730    -0.8920 hc         1 VBR       0.034700
     18 H5          15.7730     4.5000    -0.6320 hc         1 VBR       0.034700
     19 H6          18.6400     5.5000    -2.7750 ha         1 VBR       0.190000
     20 H7          13.9410     6.2310    -5.5430 ha         1 VBR       0.105000
     21 C1          16.4630     4.0610    -1.3580 c3         1 VBR      -0.025900
@<TRIPOS>BOND
     1     1     7 1   
     2     1     8 1   
     3     1    14 1   
     4     2     3 ar  
     5     2     7 ar  
     6     2     9 1   
     7     3     4 ar  
     8     3    15 1   
     9     4     5 1   
    10     4     6 ar  
    11     5    11 1   
    12     5    12 1   
    13     6    10 ar  
    14     6    13 1   
    15     7    10 ar  
    16     8     9 2   
    17     8    21 1   
    18     9    19 1   
    19    10    20 1   
    20    16    21 1   
    21    17    21 1   
    22    18    21 1   
@<TRIPOS>SUBSTRUCTURE
     1 VBR         1 TEMP              0 ****  ****    0 ROOT
