@<TRIPOS>MOLECULE
VBR
   21    22     1     0     0
SMALL
No Charge or Current Charge


@<TRIPOS>ATOM
      1 N1          15.4010     5.1580    -3.3660 na         1 VBR      -0.245700
      2 C4          17.1130     6.2150    -4.3590 ca         1 VBR      -0.104800
      3 C5          17.7820     7.0010    -5.3030 ca         1 VBR      -0.055000
      4 C6          17.0200     7.5510    -6.3640 ca         1 VBR      -0.120600
      5 C7          17.6990     8.4040    -7.3920 c          1 VBR       0.715600
      6 C8          15.6260     7.2820    -6.4430 ca         1 VBR       0.184000
      7 C10         15.7750     5.9630    -4.4310 ca         1 VBR      -0.052200
      8 C2          16.5220     4.8670    -2.5620 cc         1 VBR      -0.099300
      9 C3          17.5740     5.5240    -3.1830 cd         1 VBR      -0.226200
     10 C9          14.9910     6.4800    -5.4670 ca         1 VBR      -0.164000
     11 O1          18.6050     7.9010    -8.0420 o          1 VBR      -0.710000
     12 O2          17.3830     9.5820    -7.4700 o          1 VBR      -0.710000
     13 Cl1         14.6440     7.9030    -7.7710 cl         1 VBR      -0.238000
     14 H1          14.4570     4.8280    -3.1930 hn         1 VBR       0.330000
     15 H2          18.8510     7.1870    -5.2220 ha         1 VBR       0.121000
     16 H3          16.1570     3.0060    -1.5430 hc         1 VBR       0.034700
     17 H4          17.5030     3.9500    -0.8760 hc         1 VBR       0.034700
     18 H5          15.8300     4.4520    -0.5660 hc         1 VBR       0.034700
     19 H6          18.6000     5.5140    -2.8270 ha         1 VBR       0.190000
     20 H7          13.9270     6.2690    -5.5260 ha         1 VBR       0.105000
     21 C1          16.5020     4.0230    -1.3190 c3         1 VBR      -0.025900
@<TRIPOS>BOND
     1     1     7 1   
     2     1     8 1   
     3     1    14 1   
     4     2     3 ar  
     5     2     7 ar  
     6     2     9 1   
     7     3     4 ar  
     8     3    15 1   
     9     4     5 1   
    10     4     6 ar  
    11     5    11 1   
    12     5    12 1   
    13     6    10 ar  
    14     6    13 1   
    15     7    10 ar  
    16     8     9 2   
    17     8    21 1   
    18     9    19 1   
    19    10    20 1   
    20    16    21 1   
    21    17    21 1   
    22    18    21 1   
@<TRIPOS>SUBSTRUCTURE
     1 VBR         1 TEMP              0 ****  ****    0 ROOT
