@<TRIPOS>MOLECULE
VBS
   61    66     1     0     0
SMALL
bcc


@<TRIPOS>ATOM
      1 C1          36.7740    14.1580    33.1780 ca         1 VBS      -0.150200
      2 C2          35.9190    15.1510    32.6830 ca         1 VBS       0.423800
      3 C4          37.2220    16.7630    33.4000 ca         1 VBS       0.671900
      4 C6          37.9330    14.6040    33.8290 cp         1 VBS       0.595800
      5 C7          38.9690    13.7410    34.4070 cp         1 VBS      -0.208500
      6 C8          40.0920    14.3310    35.0130 ca         1 VBS      -0.024000
      7 C11         39.8670    11.5320    34.9020 ca         1 VBS      -0.184000
      8 C12         38.8790    12.3460    34.3630 ca         1 VBS      -0.047000
      9 N13         42.0630    11.5730    36.0890 ns         1 VBS      -0.467100
     10 C16         42.3760    13.8900    36.1990 c5         1 VBS      -0.076700
     11 C17         43.3480    14.5890    35.2200 c3         1 VBS      -0.009100
     12 C18         43.6340    13.8040    33.9690 ca         1 VBS      -0.090300
     13 C19         42.8070    13.9110    32.8520 ca         1 VBS      -0.117500
     14 C21         44.1380    12.2970    31.6610 ca         1 VBS      -0.127000
     15 C23         44.7230    12.9380    33.9050 ca         1 VBS      -0.117500
     16 C24         42.1960    14.7440    37.4530 c3         1 VBS      -0.071100
     17 C31         32.8350    10.0150    30.8610 ca         1 VBS       0.678300
     18 C33         34.8760    10.9270    31.2440 ca         1 VBS       0.472200
     19 C34         32.0140     8.8660    30.3790 c3         1 VBS      -0.138400
     20 C36         32.7660    15.7700    32.2860 c3         1 VBS      -0.112100
     21 N3          36.1010    16.4560    32.7640 nb         1 VBS      -0.707000
     22 N5          38.1100    15.9250    33.9180 nb         1 VBS      -0.751000
     23 C9          41.0750    13.5340    35.5380 ca         1 VBS      -0.160300
     24 C10         40.9600    12.1460    35.4850 ca         1 VBS       0.098600
     25 C14         42.9310    12.5100    36.5680 c          1 VBS       0.714500
     26 O15         43.9540    12.2840    37.1750 o          1 VBS      -0.598500
     27 C20         43.0540    13.1650    31.7080 ca         1 VBS      -0.131000
     28 C22         44.9740    12.1890    32.7630 ca         1 VBS      -0.131000
     29 N25         34.8830    14.4980    32.0880 na         1 VBS      -0.243000
     30 C26         35.1410    13.1620    32.2490 cc         1 VBS       0.484400
     31 N27         36.2570    12.9280    32.8900 nd         1 VBS      -0.557100
     32 C28         34.2950    12.0860    31.7480 ca         1 VBS      -0.364500
     33 C29         32.9040    12.0890    31.7810 ca         1 VBS       0.472200
     34 N30         32.1840    11.0730    31.3410 nb         1 VBS      -0.707000
     35 N32         34.1610     9.9060    30.8050 nb         1 VBS      -0.707000
     36 H1          37.4410    17.8190    33.5090 h5         1 VBS       0.051100
     37 H2          40.1770    15.4090    35.0500 ha         1 VBS       0.158000
     38 H3          39.7760    10.4550    34.8590 ha         1 VBS       0.143000
     39 H4          38.0220    11.8780    33.9010 ha         1 VBS       0.163000
     40 H5          42.2070    10.5790    36.1950 hn         1 VBS       0.340500
     41 H6          44.2780    14.7960    35.7550 hc         1 VBS       0.058700
     42 H7          42.9130    15.5590    34.9650 hc         1 VBS       0.058700
     43 H8          41.9650    14.5920    32.8690 ha         1 VBS       0.136000
     44 H9          44.3330    11.7160    30.7690 ha         1 VBS       0.129000
     45 H10         45.3890    12.8520    34.7550 ha         1 VBS       0.136000
     46 H11         41.5360    14.2630    38.1740 hc         1 VBS       0.047700
     47 H12         43.1570    14.9280    37.9340 hc         1 VBS       0.047700
     48 H13         41.7610    15.7090    37.1880 hc         1 VBS       0.047700
     49 H14         35.9550    10.8340    31.1900 h4         1 VBS       0.036600
     50 H15         32.6190     8.1600    29.8170 hc         1 VBS       0.064367
     51 H16         31.5760     8.3400    31.2290 hc         1 VBS       0.064367
     52 H17         31.1900     9.2130    29.7570 hc         1 VBS       0.064367
     53 H18         34.2710    15.9450    30.7560 h1         1 VBS       0.066700
     54 H19         33.3680    14.4530    30.6720 h1         1 VBS       0.066700
     55 H20         32.0140    16.2840    31.6890 hc         1 VBS       0.052367
     56 H21         32.2590    15.0120    32.8830 hc         1 VBS       0.052367
     57 H22         33.2130    16.4950    32.9640 hc         1 VBS       0.052367
     58 H23         42.4020    13.2660    30.8500 ha         1 VBS       0.130000
     59 H24         45.8280    11.5240    32.7340 ha         1 VBS       0.130000
     60 H25         32.3520    12.9230    32.1990 h4         1 VBS       0.036600
     61 C35         33.8110    15.1670    31.3640 c3         1 VBS       0.054300
@<TRIPOS>BOND
     1     1     2 ar  
     2     1     4 ar  
     3     1    31 1   
     4     2    21 ar  
     5     2    29 1   
     6     3    21 ar  
     7     3    22 ar  
     8     3    36 1   
     9     4     5 1   
    10     4    22 ar  
    11     5     6 ar  
    12     5     8 ar  
    13     6    23 ar  
    14     6    37 1   
    15     7     8 ar  
    16     7    24 ar  
    17     7    38 1   
    18     8    39 1   
    19     9    24 1   
    20     9    25 1   
    21     9    40 1   
    22    10    11 1   
    23    10    16 1   
    24    10    23 1   
    25    10    25 1   
    26    11    12 1   
    27    11    41 1   
    28    11    42 1   
    29    12    13 ar  
    30    12    15 ar  
    31    13    27 ar  
    32    13    43 1   
    33    14    27 ar  
    34    14    28 ar  
    35    14    44 1   
    36    15    28 ar  
    37    15    45 1   
    38    16    46 1   
    39    16    47 1   
    40    16    48 1   
    41    17    19 1   
    42    17    34 ar  
    43    17    35 ar  
    44    18    32 ar  
    45    18    35 ar  
    46    18    49 1   
    47    19    50 1   
    48    19    51 1   
    49    19    52 1   
    50    20    55 1   
    51    20    56 1   
    52    20    57 1   
    53    20    61 1   
    54    23    24 ar  
    55    25    26 2   
    56    27    58 1   
    57    28    59 1   
    58    29    30 1   
    59    29    61 1   
    60    30    31 2   
    61    30    32 1   
    62    32    33 ar  
    63    33    34 ar  
    64    33    60 1   
    65    53    61 1   
    66    54    61 1   
@<TRIPOS>SUBSTRUCTURE
     1 VBS         1 TEMP              0 ****  ****    0 ROOT
