@<TRIPOS>MOLECULE
VBS
   61    66     1     0     0
SMALL
No Charge or Current Charge


@<TRIPOS>ATOM
      1 C1          36.6690    14.3550    33.5590 ca         1 VBS      -0.019600
      2 C2          35.7240    15.2710    33.1220 ca         1 VBS       0.095500
      3 C4          36.7850    16.9550    34.2400 ca         1 VBS       0.145900
      4 C6          37.7160    14.8420    34.4020 cp         1 VBS       0.267500
      5 C7          38.8200    13.9810    34.9520 cp         1 VBS      -0.208500
      6 C8          40.1150    14.5290    35.1920 ca         1 VBS      -0.006000
      7 C11         39.6350    11.7920    35.7750 ca         1 VBS      -0.166000
      8 C12         38.6030    12.6010    35.2590 ca         1 VBS      -0.029000
      9 N13         42.0560    11.8290    36.4660 ns         1 VBS      -0.141000
     10 C16         42.5930    14.0460    36.0130 c5         1 VBS      -0.076700
     11 C17         43.3890    14.4840    34.7490 c3         1 VBS      -0.009100
     12 C18         43.3620    13.4670    33.6090 ca         1 VBS      -0.090300
     13 C19         42.3240    13.4900    32.6560 ca         1 VBS      -0.099500
     14 C21         43.3030    11.5750    31.5160 ca         1 VBS      -0.109000
     15 C23         44.3750    12.4940    33.5000 ca         1 VBS      -0.099500
     16 C24         42.6970    15.1430    37.1040 c3         1 VBS      -0.071100
     17 C31         33.5120    10.0350    30.3170 ca         1 VBS       0.152300
     18 C33         35.4050    11.0450    31.1340 ca         1 VBS       0.143900
     19 C34         32.8790     8.8550    29.6000 c3         1 VBS      -0.138400
     20 C36         32.5820    15.6720    32.3300 c3         1 VBS      -0.112100
     21 N3          35.7610    16.5770    33.4500 nb         1 VBS      -0.181000
     22 N5          37.7590    16.1560    34.7230 nb         1 VBS      -0.225000
     23 C9          41.1320    13.7060    35.6980 ca         1 VBS      -0.160300
     24 C10         40.8830    12.3820    35.9760 ca         1 VBS       0.006000
     25 C14         43.1430    12.6720    36.5640 c          1 VBS       0.572000
     26 O15         44.2500    12.3780    36.9990 o          1 VBS      -0.523000
     27 C20         42.2930    12.5460    31.6150 ca         1 VBS      -0.113000
     28 C22         44.3450    11.5510    32.4580 ca         1 VBS      -0.113000
     29 N25         34.8500    14.5740    32.3340 na         1 VBS      -0.272300
     30 C26         35.2700    13.2420    32.3020 cc         1 VBS       0.484400
     31 N27         36.3850    13.0870    33.0300 nd         1 VBS      -0.557100
     32 C28         34.6400    12.1490    31.5630 ca         1 VBS      -0.233900
     33 C29         33.2490    12.0690    31.3510 ca         1 VBS       0.143900
     34 N30         32.6840    11.0200    30.7200 nb         1 VBS      -0.181000
     35 N32         34.8470     9.9940    30.5000 nb         1 VBS      -0.181000
     36 H1          36.8330    18.0080    34.5120 h5         1 VBS       0.051100
     37 H2          40.3310    15.5720    34.9710 ha         1 VBS       0.140000
     38 H3          39.4630    10.7450    36.0090 ha         1 VBS       0.125000
     39 H4          37.6210    12.1560    35.1130 ha         1 VBS       0.145000
     40 H5          42.1050    10.8620    36.7580 hn         1 VBS       0.174000
     41 H6          44.4310    14.6890    35.0260 hc         1 VBS       0.058700
     42 H7          42.9950    15.4410    34.3840 hc         1 VBS       0.058700
     43 H8          41.5360    14.2360    32.7240 ha         1 VBS       0.118000
     44 H9          43.2800    10.8450    30.7100 ha         1 VBS       0.111000
     45 H10         45.1870    12.4650    34.2240 ha         1 VBS       0.118000
     46 H11         42.1510    14.8510    38.0090 hc         1 VBS       0.047700
     47 H12         43.7400    15.3250    37.3900 hc         1 VBS       0.047700
     48 H13         42.2760    16.0940    36.7560 hc         1 VBS       0.047700
     49 H14         36.4820    11.0000    31.2860 h4         1 VBS       0.036600
     50 H15         33.5730     8.4020    28.8820 hc         1 VBS       0.064367
     51 H16         32.5830     8.0790    30.3150 hc         1 VBS       0.064367
     52 H17         31.9830     9.1570    29.0440 hc         1 VBS       0.064367
     53 H18         34.2780    16.1630    31.0810 h1         1 VBS       0.066700
     54 H19         33.5300    14.6190    30.6820 h1         1 VBS       0.066700
     55 H20         31.8430    16.1480    31.6750 hc         1 VBS       0.052367
     56 H21         32.1140    14.8020    32.8030 hc         1 VBS       0.052367
     57 H22         32.8500    16.3870    33.1170 hc         1 VBS       0.052367
     58 H23         41.4860    12.5680    30.8860 ha         1 VBS       0.112000
     59 H24         45.1290    10.8010    32.3820 ha         1 VBS       0.112000
     60 H25         32.5650    12.8350    31.7050 h4         1 VBS       0.036600
     61 C35         33.8280    15.2620    31.5190 c3         1 VBS       0.083600
@<TRIPOS>BOND
     1     1     2 ar  
     2     1     4 ar  
     3     1    31 1   
     4     2    21 ar  
     5     2    29 1   
     6     3    21 ar  
     7     3    22 ar  
     8     3    36 1   
     9     4     5 1   
    10     4    22 ar  
    11     5     6 ar  
    12     5     8 ar  
    13     6    23 ar  
    14     6    37 1   
    15     7     8 ar  
    16     7    24 ar  
    17     7    38 1   
    18     8    39 1   
    19     9    24 1   
    20     9    25 1   
    21     9    40 1   
    22    10    11 1   
    23    10    16 1   
    24    10    23 1   
    25    10    25 1   
    26    11    12 1   
    27    11    41 1   
    28    11    42 1   
    29    12    13 ar  
    30    12    15 ar  
    31    13    27 ar  
    32    13    43 1   
    33    14    27 ar  
    34    14    28 ar  
    35    14    44 1   
    36    15    28 ar  
    37    15    45 1   
    38    16    46 1   
    39    16    47 1   
    40    16    48 1   
    41    17    19 1   
    42    17    34 ar  
    43    17    35 ar  
    44    18    32 ar  
    45    18    35 ar  
    46    18    49 1   
    47    19    50 1   
    48    19    51 1   
    49    19    52 1   
    50    20    55 1   
    51    20    56 1   
    52    20    57 1   
    53    20    61 1   
    54    23    24 ar  
    55    25    26 2   
    56    27    58 1   
    57    28    59 1   
    58    29    30 1   
    59    29    61 1   
    60    30    31 2   
    61    30    32 1   
    62    32    33 ar  
    63    33    34 ar  
    64    33    60 1   
    65    53    61 1   
    66    54    61 1   
@<TRIPOS>SUBSTRUCTURE
     1 VBS         1 TEMP              0 ****  ****    0 ROOT
