@<TRIPOS>MOLECULE
VBT
   13    13     1     0     0
SMALL
No Charge or Current Charge


@<TRIPOS>ATOM
      1 C1         -39.6270   -16.9730    11.3500 c          1 VBT       0.727600
      2 C2         -39.6190   -16.8620     9.8610 ca         1 VBT      -0.128600
      3 C3         -40.8230   -16.9530     9.1270 ca         1 VBT      -0.099000
      4 C4         -40.7610   -16.8400     7.7310 ca         1 VBT       0.101000
      5 C5         -39.5030   -16.6450     7.1190 ca         1 VBT       0.386000
      6 C6         -38.4100   -16.6740     9.1610 ca         1 VBT       0.449000
      7 F1         -41.8960   -16.9170     6.9950 f          1 VBT      -0.176000
      8 N1         -38.3420   -16.5670     7.8110 nb         1 VBT      -0.680000
      9 O1         -39.1810   -16.0420    12.0030 o          1 VBT      -0.690500
     10 O2         -40.1700   -17.9510    11.8430 o          1 VBT      -0.690500
     11 Cl1        -36.8480   -16.6160     9.9760 cl         1 VBT      -0.160000
     12 Cl2        -39.3550   -16.4950     5.3710 cl         1 VBT      -0.193000
     13 H1         -41.7770   -17.1040     9.6280 ha         1 VBT       0.153000
@<TRIPOS>BOND
     1     1     2 1   
     2     1     9 1   
     3     1    10 1   
     4     2     3 ar  
     5     2     6 ar  
     6     3     4 ar  
     7     3    13 1   
     8     4     5 ar  
     9     4     7 1   
    10     5     8 ar  
    11     5    12 1   
    12     6     8 ar  
    13     6    11 1   
@<TRIPOS>SUBSTRUCTURE
     1 VBT         1 TEMP              0 ****  ****    0 ROOT
