@<TRIPOS>MOLECULE
VBT
   13    13     1     0     0
SMALL
abcg2


@<TRIPOS>ATOM
      1 C1         -39.6790   -16.9630    11.3910 c          1 VBT       0.727600
      2 C2         -39.5840   -16.8610     9.8630 ca         1 VBT      -0.128600
      3 C3         -40.7510   -16.9920     9.1180 ca         1 VBT      -0.099000
      4 C4         -40.7150   -16.8570     7.7490 ca         1 VBT       0.101000
      5 C5         -39.4980   -16.6350     7.1320 ca         1 VBT       0.386000
      6 C6         -38.4230   -16.6390     9.1250 ca         1 VBT       0.449000
      7 F1         -41.8250   -16.9520     7.0220 f          1 VBT      -0.176000
      8 N1         -38.3850   -16.5420     7.8120 nb         1 VBT      -0.680000
      9 O1         -38.9530   -16.1990    12.0380 o          1 VBT      -0.690500
     10 O2         -40.5100   -17.7890    11.8020 o          1 VBT      -0.690500
     11 CL1        -36.8750   -16.5290     9.8900 cl         1 VBT      -0.160000
     12 CL2        -39.4240   -16.4870     5.4180 cl         1 VBT      -0.193000
     13 H1         -41.6910   -17.1940     9.6150 ha         1 VBT       0.153000
@<TRIPOS>BOND
     1     1     2 1   
     2     1     9 1   
     3     1    10 1   
     4     2     3 ar  
     5     2     6 ar  
     6     3     4 ar  
     7     3    13 1   
     8     4     5 ar  
     9     4     7 1   
    10     5     8 ar  
    11     5    12 1   
    12     6     8 ar  
    13     6    11 1   
@<TRIPOS>SUBSTRUCTURE
     1 VBT         1 TEMP              0 ****  ****    0 ROOT
