@<TRIPOS>MOLECULE
VBU
   42    45     1     0     0
SMALL
No Charge or Current Charge


@<TRIPOS>ATOM
      1 C06        140.5480   146.4920   166.2940 c6         1 VBU       0.223800
      2 C07        140.8930   145.6620   168.6570 c6         1 VBU       0.223800
      3 C08        142.0850   146.7660   166.3850 c6         1 VBU       0.160800
      4 C09        142.0450   144.8480   167.9780 c6         1 VBU       0.160800
      5 C10        138.5660   146.1570   167.8280 cc         1 VBU       0.538400
      6 C11        138.1170   146.3770   169.2180 ca         1 VBU      -0.225500
      7 C13        137.1490   145.5550   169.8080 ca         1 VBU       0.015800
      8 C14        136.4490   145.7630   166.8850 ca         1 VBU       0.292000
      9 C15        135.8490   145.0230   167.9500 ca         1 VBU      -0.075200
     10 C16        138.6660   147.4290   169.9890 ca         1 VBU      -0.069000
     11 C17        136.7530   145.7420   171.1440 ca         1 VBU      -0.159000
     12 C18        138.2710   147.6250   171.3240 ca         1 VBU      -0.135000
     13 C19        135.6400   146.0950   165.7800 ca         1 VBU      -0.100000
     14 C20        137.3170   146.7760   171.9060 ca         1 VBU      -0.072000
     15 C21        134.4810   144.6910   167.9010 ca         1 VBU      -0.126000
     16 C22        134.2790   145.7650   165.7420 ca         1 VBU       0.125000
     17 C23        133.6940   145.0680   166.8040 ca         1 VBU      -0.110000
     18 N02        139.9370   146.2470   167.6490 nh         1 VBU      -0.794300
     19 N03        142.8680   145.6420   167.0030 n3         1 VBU      -0.736600
     20 N04        137.8070   146.1140   166.7380 nd         1 VBU      -0.494000
     21 N05        136.5590   144.5750   169.0510 na         1 VBU      -0.225600
     22 Cl1        133.3040   146.2210   164.3510 cl         1 VBU      -0.210000
     23 H1         140.0700   147.3590   165.8150 h1         1 VBU       0.057200
     24 H2         140.3780   145.6250   165.6380 h1         1 VBU       0.057200
     25 H3         141.3350   146.4640   169.2650 h1         1 VBU       0.057200
     26 H4         140.3630   144.9900   169.3480 h1         1 VBU       0.057200
     27 H5         142.4720   146.9840   165.3790 h1         1 VBU       0.042450
     28 H6         142.2170   147.6850   166.9760 h1         1 VBU       0.042450
     29 H7         141.5800   144.0040   167.4480 h1         1 VBU       0.042450
     30 H8         142.6810   144.4040   168.7580 h1         1 VBU       0.042450
     31 H9         144.7610   145.2320   167.8930 h1         1 VBU       0.030033
     32 H10        144.7550   146.6050   166.7670 h1         1 VBU       0.030033
     33 H11        144.0310   146.7800   168.3840 h1         1 VBU       0.030033
     34 H12        139.4050   148.0990   169.5530 ha         1 VBU       0.121000
     35 H13        135.9990   145.0960   171.5870 ha         1 VBU       0.117000
     36 H14        138.7060   148.4340   171.9060 ha         1 VBU       0.119000
     37 H15        136.0770   146.6260   164.9400 ha         1 VBU       0.139000
     38 H16        137.0100   146.9260   172.9390 ha         1 VBU       0.117000
     39 H17        134.0240   144.1330   168.7170 ha         1 VBU       0.110000
     40 H18        132.6380   144.8100   166.7720 ha         1 VBU       0.128000
     41 H20        136.5010   143.6160   169.3730 hn         1 VBU       0.286000
     42 C12        144.1720   146.0890   167.5410 c3         1 VBU       0.165100
@<TRIPOS>BOND
     1     1     3 1   
     2     1    18 1   
     3     1    23 1   
     4     1    24 1   
     5     2     4 1   
     6     2    18 1   
     7     2    25 1   
     8     2    26 1   
     9     3    19 1   
    10     3    27 1   
    11     3    28 1   
    12     4    19 1   
    13     4    29 1   
    14     4    30 1   
    15     5     6 1   
    16     5    18 1   
    17     5    20 2   
    18     6     7 ar  
    19     6    10 ar  
    20     7    11 ar  
    21     7    21 1   
    22     8     9 ar  
    23     8    13 ar  
    24     8    20 1   
    25     9    15 ar  
    26     9    21 1   
    27    10    12 ar  
    28    10    34 1   
    29    11    14 ar  
    30    11    35 1   
    31    12    14 ar  
    32    12    36 1   
    33    13    16 ar  
    34    13    37 1   
    35    14    38 1   
    36    15    17 ar  
    37    15    39 1   
    38    16    17 ar  
    39    16    22 1   
    40    17    40 1   
    41    19    42 1   
    42    21    41 1   
    43    31    42 1   
    44    32    42 1   
    45    33    42 1   
@<TRIPOS>SUBSTRUCTURE
     1 VBU         1 TEMP              0 ****  ****    0 ROOT
