@<TRIPOS>MOLECULE
VBU
   42    45     1     0     0
SMALL
abcg2


@<TRIPOS>ATOM
      1 C06        140.5000   146.4730   166.3850 c6         1 VBU       0.223800
      2 C07        140.9680   146.2880   168.7990 c6         1 VBU       0.223800
      3 C08        142.0030   146.6670   166.4140 c6         1 VBU       0.160800
      4 C09        142.0960   145.3300   168.4340 c6         1 VBU       0.160800
      5 C10        138.6450   146.2080   167.9120 cc         1 VBU       0.538400
      6 C11        138.1070   146.3310   169.2910 ca         1 VBU      -0.225500
      7 C13        137.2020   145.3810   169.7650 ca         1 VBU       0.015800
      8 C14        136.5680   145.7730   166.8890 ca         1 VBU       0.292000
      9 C15        135.9640   144.9130   167.8260 ca         1 VBU      -0.075200
     10 C16        138.4700   147.3950   170.1150 ca         1 VBU      -0.069000
     11 C17        136.7430   145.4540   171.0770 ca         1 VBU      -0.159000
     12 C18        137.9970   147.4800   171.4140 ca         1 VBU      -0.135000
     13 C19        135.7730   146.2850   165.8580 ca         1 VBU      -0.100000
     14 C20        137.1540   146.4890   171.9020 ca         1 VBU      -0.072000
     15 C21        134.6200   144.5840   167.7030 ca         1 VBU      -0.126000
     16 C22        134.4360   145.9460   165.7610 ca         1 VBU       0.125000
     17 C23        133.8440   145.0820   166.6670 ca         1 VBU      -0.110000
     18 N02        139.9760   146.3680   167.7410 nh         1 VBU      -0.794300
     19 N03        142.6250   145.5540   167.0910 n3         1 VBU      -0.736600
     20 N04        137.9180   146.0410   166.8570 nd         1 VBU      -0.494000
     21 N05        136.7500   144.3890   168.8760 na         1 VBU      -0.225600
     22 CL1        133.4840   146.6080   164.4670 cl         1 VBU      -0.210000
     23 H1         140.0220   147.3080   165.8680 h1         1 VBU       0.057200
     24 H2         140.2660   145.5690   165.8160 h1         1 VBU       0.057200
     25 H3         141.3760   147.2790   169.0170 h1         1 VBU       0.057200
     26 H4         140.5100   145.9270   169.7160 h1         1 VBU       0.057200
     27 H5         142.3550   146.6940   165.3800 h1         1 VBU       0.042450
     28 H6         142.2560   147.6480   166.8510 h1         1 VBU       0.042450
     29 H7         141.7400   144.2990   168.5330 h1         1 VBU       0.042450
     30 H8         142.8740   145.4680   169.1930 h1         1 VBU       0.042450
     31 H9         144.4790   144.6740   167.4710 h1         1 VBU       0.030033
     32 H10        144.4050   145.6490   166.0080 h1         1 VBU       0.030033
     33 H11        144.5050   146.4380   167.5910 h1         1 VBU       0.030033
     34 H12        139.1400   148.1590   169.7410 ha         1 VBU       0.121000
     35 H13        136.0510   144.7050   171.4430 ha         1 VBU       0.117000
     36 H14        138.2930   148.3070   172.0450 ha         1 VBU       0.119000
     37 H15        136.2330   146.9360   165.1270 ha         1 VBU       0.139000
     38 H16        136.7930   146.5350   172.9220 ha         1 VBU       0.117000
     39 H17        134.1670   143.9230   168.4320 ha         1 VBU       0.110000
     40 H18        132.8020   144.8090   166.5830 ha         1 VBU       0.128000
     41 H20        136.2750   143.6380   169.3590 hn         1 VBU       0.286000
     42 C12        144.0670   145.5890   167.0440 c3         1 VBU       0.165100
@<TRIPOS>BOND
     1     1     3 1   
     2     1    18 1   
     3     1    23 1   
     4     1    24 1   
     5     2     4 1   
     6     2    18 1   
     7     2    25 1   
     8     2    26 1   
     9     3    19 1   
    10     3    27 1   
    11     3    28 1   
    12     4    19 1   
    13     4    29 1   
    14     4    30 1   
    15     5     6 1   
    16     5    18 1   
    17     5    20 2   
    18     6     7 ar  
    19     6    10 ar  
    20     7    11 ar  
    21     7    21 1   
    22     8     9 ar  
    23     8    13 ar  
    24     8    20 1   
    25     9    15 ar  
    26     9    21 1   
    27    10    12 ar  
    28    10    34 1   
    29    11    14 ar  
    30    11    35 1   
    31    12    14 ar  
    32    12    36 1   
    33    13    16 ar  
    34    13    37 1   
    35    14    38 1   
    36    15    17 ar  
    37    15    39 1   
    38    16    17 ar  
    39    16    22 1   
    40    17    40 1   
    41    19    42 1   
    42    21    41 1   
    43    31    42 1   
    44    32    42 1   
    45    33    42 1   
@<TRIPOS>SUBSTRUCTURE
     1 VBU         1 TEMP              0 ****  ****    0 ROOT
