@<TRIPOS>MOLECULE
VBV
   28    29     1     0     0
SMALL
No Charge or Current Charge


@<TRIPOS>ATOM
      1 O2          51.5430   -13.0650   -10.9560 o          1 VBV      -0.703533
      2 O3          56.6660   -15.3060    -0.6430 o          1 VBV      -0.703533
      3 O5          58.6860   -15.3550    -2.1150 o          1 VBV      -0.703533
      4 C7          54.3730   -13.5690    -3.9110 ca         1 VBV      -0.138000
      5 C           52.4590   -12.3490    -8.6280 ca         1 VBV      -0.230000
      6 O           52.1030   -10.6710   -10.5590 o          1 VBV      -0.703533
      7 C1          52.1650   -11.8430    -7.3450 ca         1 VBV      -0.033500
      8 C10         57.1290   -13.9650    -4.2350 ca         1 VBV      -0.033500
      9 C11         56.3290   -13.6200    -5.3390 ca         1 VBV      -0.138000
     10 C2          52.9630   -12.1900    -6.2420 ca         1 VBV      -0.138000
     11 C3          54.0830   -13.0480    -6.3820 cp         1 VBV      -0.018000
     12 C4          54.3710   -13.5410    -7.6790 ca         1 VBV      -0.138000
     13 C5          53.5740   -13.1970    -8.7860 ca         1 VBV      -0.033500
     14 C6          54.9340   -13.4160    -5.2030 cp         1 VBV      -0.018000
     15 C8          55.1680   -13.9150    -2.8050 ca         1 VBV      -0.033500
     16 C9          56.5540   -14.1220    -2.9570 ca         1 VBV      -0.230000
     17 O1          50.0940   -11.6670    -9.4750 o          1 VBV      -0.703533
     18 O4          57.9960   -13.2330    -1.0080 o          1 VBV      -0.703533
     19 S           51.4140   -11.8830   -10.0890 s6         1 VBV       1.270600
     20 S1          57.6090   -14.5660    -1.4960 s6         1 VBV       1.270600
     21 H1          53.3050   -13.4310    -3.7630 ha         1 VBV       0.096750
     22 H2          51.3190   -11.1750    -7.2000 ha         1 VBV       0.118750
     23 H3          58.1990   -14.1050    -4.3770 ha         1 VBV       0.118750
     24 H4          56.8040   -13.4960    -6.3080 ha         1 VBV       0.096750
     25 H5          52.7170   -11.7750    -5.2680 ha         1 VBV       0.096750
     26 H6          55.2140   -14.2090    -7.8310 ha         1 VBV       0.096750
     27 H7          53.8280   -13.5940    -9.7670 ha         1 VBV       0.118750
     28 H8          54.7020   -14.0210    -1.8270 ha         1 VBV       0.118750
@<TRIPOS>BOND
     1     1    19 1   
     2     2    20 1   
     3     3    20 1   
     4     4    14 ar  
     5     4    15 ar  
     6     4    21 1   
     7     5     7 ar  
     8     5    13 ar  
     9     5    19 1   
    10     6    19 1   
    11     7    10 ar  
    12     7    22 1   
    13     8     9 ar  
    14     8    16 ar  
    15     8    23 1   
    16     9    14 ar  
    17     9    24 1   
    18    10    11 ar  
    19    10    25 1   
    20    11    12 ar  
    21    11    14 1   
    22    12    13 ar  
    23    12    26 1   
    24    13    27 1   
    25    15    16 ar  
    26    15    28 1   
    27    16    20 1   
    28    17    19 1   
    29    18    20 1   
@<TRIPOS>SUBSTRUCTURE
     1 VBV         1 TEMP              0 ****  ****    0 ROOT
