@<TRIPOS>MOLECULE
VBV
   28    29     1     0     0
SMALL
bcc


@<TRIPOS>ATOM
      1 O2          51.6170   -13.0190   -10.9370 o          1 VBV      -0.703533
      2 O3          56.6040   -15.0590    -0.5750 o          1 VBV      -0.703533
      3 O5          58.5140   -15.4890    -2.0750 o          1 VBV      -0.703533
      4 C7          54.3610   -13.6130    -3.9710 ca         1 VBV      -0.156000
      5 C           52.5000   -12.3660    -8.5730 ca         1 VBV      -0.230000
      6 O           52.0250   -10.6390   -10.4540 o          1 VBV      -0.703533
      7 C1          52.2250   -11.8400    -7.3170 ca         1 VBV      -0.051500
      8 C10         57.0970   -13.9330    -4.2510 ca         1 VBV      -0.051500
      9 C11         56.3250   -13.5740    -5.3430 ca         1 VBV      -0.156000
     10 C2          53.0260   -12.1690    -6.2360 ca         1 VBV      -0.156000
     11 C3          54.1160   -13.0290    -6.3830 cp         1 VBV      -0.018000
     12 C4          54.3870   -13.5370    -7.6530 ca         1 VBV      -0.156000
     13 C5          53.5890   -13.2110    -8.7380 ca         1 VBV      -0.051500
     14 C6          54.9440   -13.4050    -5.2210 cp         1 VBV      -0.018000
     15 C8          55.1300   -13.9740    -2.8760 ca         1 VBV      -0.051500
     16 C9          56.5010   -14.1340    -3.0120 ca         1 VBV      -0.230000
     17 O1          50.1110   -11.7900    -9.4240 o          1 VBV      -0.703533
     18 O4          58.1110   -13.2180    -1.2100 o          1 VBV      -0.703533
     19 S           51.4720   -11.9150    -9.9730 s6         1 VBV       1.270600
     20 S1          57.5220   -14.5140    -1.5900 s6         1 VBV       1.270600
     21 H1          53.2890   -13.5170    -3.8510 ha         1 VBV       0.114750
     22 H2          51.3830   -11.1770    -7.1690 ha         1 VBV       0.136750
     23 H3          58.1650   -14.0560    -4.3740 ha         1 VBV       0.136750
     24 H4          56.8090   -13.4060    -6.2970 ha         1 VBV       0.114750
     25 H5          52.8020   -11.7400    -5.2670 ha         1 VBV       0.114750
     26 H6          55.2130   -14.2230    -7.7980 ha         1 VBV       0.114750
     27 H7          53.8090   -13.6380    -9.7070 ha         1 VBV       0.136750
     28 H8          54.6520   -14.1420    -1.9200 ha         1 VBV       0.136750
@<TRIPOS>BOND
     1     1    19 1   
     2     2    20 1   
     3     3    20 1   
     4     4    14 ar  
     5     4    15 ar  
     6     4    21 1   
     7     5     7 ar  
     8     5    13 ar  
     9     5    19 1   
    10     6    19 1   
    11     7    10 ar  
    12     7    22 1   
    13     8     9 ar  
    14     8    16 ar  
    15     8    23 1   
    16     9    14 ar  
    17     9    24 1   
    18    10    11 ar  
    19    10    25 1   
    20    11    12 ar  
    21    11    14 1   
    22    12    13 ar  
    23    12    26 1   
    24    13    27 1   
    25    15    16 ar  
    26    15    28 1   
    27    16    20 1   
    28    17    19 1   
    29    18    20 1   
@<TRIPOS>SUBSTRUCTURE
     1 VBV         1 TEMP              0 ****  ****    0 ROOT
