@<TRIPOS>MOLECULE
VBX
   31    31     1     0     0
SMALL
abcg2


@<TRIPOS>ATOM
      1 N1          24.6230    15.5390   -21.0220 nu         1 VBX      -0.949200
      2 C7          22.8860    18.6650   -21.8930 ca         1 VBX      -0.031000
      3 C8          23.8280    17.6440   -21.9030 ca         1 VBX      -0.216600
      4 N2          26.1380    17.7260   -22.6460 ns         1 VBX      -0.509900
      5 C9          24.8400    17.6450   -23.0060 c          1 VBX       0.609700
      6 O1          24.4910    17.5590   -24.1750 o          1 VBX      -0.593100
      7 C1          25.2590    15.0360   -18.6760 c          1 VBX       0.567100
      8 C5          21.8000    17.6800   -20.0130 ca         1 VBX      -0.053000
      9 C6          21.8740    18.7050   -20.9460 ca         1 VBX      -0.167000
     10 C4          22.7160    16.6420   -20.0180 ca         1 VBX      -0.188000
     11 C3          23.7510    16.5950   -20.9630 ca         1 VBX       0.365000
     12 C2          24.6960    14.5360   -20.0080 c3         1 VBX       0.138800
     13 C10         26.6350    18.2360   -21.3820 c3         1 VBX       0.080300
     14 O           25.7190    16.1610   -18.5530 o          1 VBX      -0.601100
     15 N           25.2300    14.1500   -17.6680 ns         1 VBX      -0.513900
     16 C           24.7030    12.8030   -17.7230 c3         1 VBX       0.095300
     17 H1          25.4620    15.6670   -21.5640 hn         1 VBX       0.495000
     18 H2          22.9560    19.4500   -22.6360 ha         1 VBX       0.119000
     19 H3          26.7870    17.7600   -23.4190 hn         1 VBX       0.304500
     20 H4          21.0180    17.6840   -19.2640 ha         1 VBX       0.108000
     21 H5          21.1580    19.5160   -20.9410 ha         1 VBX       0.117000
     22 H6          22.6120    15.8640   -19.2740 ha         1 VBX       0.108000
     23 H7          23.7170    14.0730   -19.8540 h1         1 VBX       0.068700
     24 H8          25.3390    13.7320   -20.3760 h1         1 VBX       0.068700
     25 H9          27.6990    18.0210   -21.3250 h1         1 VBX       0.047033
     26 H10         26.4990    19.3160   -21.2930 h1         1 VBX       0.047033
     27 H11         26.1580    17.7530   -20.5340 h1         1 VBX       0.047033
     28 H12         25.6050    14.4670   -16.7870 hn         1 VBX       0.319500
     29 H13         24.9140    12.3180   -16.7740 h1         1 VBX       0.039033
     30 H14         23.6230    12.7860   -17.8750 h1         1 VBX       0.039033
     31 H15         25.1730    12.2100   -18.5090 h1         1 VBX       0.039033
@<TRIPOS>BOND
     1     1    11 1   
     2     1    12 1   
     3     1    17 1   
     4     2     3 ar  
     5     2     9 ar  
     6     2    18 1   
     7     3     5 1   
     8     3    11 ar  
     9     4     5 1   
    10     4    13 1   
    11     4    19 1   
    12     5     6 2   
    13     7    12 1   
    14     7    14 2   
    15     7    15 1   
    16     8     9 ar  
    17     8    10 ar  
    18     8    20 1   
    19     9    21 1   
    20    10    11 ar  
    21    10    22 1   
    22    12    23 1   
    23    12    24 1   
    24    13    25 1   
    25    13    26 1   
    26    13    27 1   
    27    15    16 1   
    28    15    28 1   
    29    16    29 1   
    30    16    30 1   
    31    16    31 1   
@<TRIPOS>SUBSTRUCTURE
     1 VBX         1 TEMP              0 ****  ****    0 ROOT
