@<TRIPOS>MOLECULE
VBX
   31    31     1     0     0
SMALL
No Charge or Current Charge


@<TRIPOS>ATOM
      1 N1          24.4880    15.5960   -21.0800 nu         1 VBX      -0.949200
      2 C7          22.8490    18.8230   -21.9670 ca         1 VBX      -0.031000
      3 C8          23.7830    17.7660   -21.9680 ca         1 VBX      -0.216600
      4 N2          26.1730    17.6200   -22.6430 ns         1 VBX      -0.509900
      5 C9          24.8560    17.7810   -23.0170 c          1 VBX       0.609700
      6 O1          24.5820    17.9040   -24.2000 o          1 VBX      -0.593100
      7 C1          25.2340    15.0860   -18.6300 c          1 VBX       0.567100
      8 C5          21.6810    17.8240   -20.0870 ca         1 VBX      -0.053000
      9 C6          21.8100    18.8570   -21.0250 ca         1 VBX      -0.167000
     10 C4          22.5880    16.7530   -20.1030 ca         1 VBX      -0.188000
     11 C3          23.6410    16.7110   -21.0380 ca         1 VBX       0.365000
     12 C2          24.6750    14.5610   -20.0070 c3         1 VBX       0.138800
     13 C10         26.7120    17.8120   -21.2890 c3         1 VBX       0.080300
     14 O           25.6310    16.2290   -18.4470 o          1 VBX      -0.601100
     15 N           25.2680    14.1930   -17.5790 ns         1 VBX      -0.513900
     16 C           24.8740    12.7820   -17.6400 c3         1 VBX       0.095300
     17 H1          25.2440    15.6730   -21.7640 hn         1 VBX       0.495000
     18 H2          22.9370    19.6280   -22.6950 ha         1 VBX       0.119000
     19 H3          26.8360    17.5950   -23.4100 hn         1 VBX       0.304500
     20 H4          20.8730    17.8450   -19.3590 ha         1 VBX       0.108000
     21 H5          21.1020    19.6830   -21.0250 ha         1 VBX       0.117000
     22 H6          22.4520    15.9490   -19.3870 ha         1 VBX       0.108000
     23 H7          23.7200    14.0580   -19.8060 h1         1 VBX       0.068700
     24 H8          25.3730    13.7870   -20.3540 h1         1 VBX       0.068700
     25 H9          27.6130    18.4350   -21.3450 h1         1 VBX       0.047033
     26 H10         25.9790    18.3120   -20.6430 h1         1 VBX       0.047033
     27 H11         26.9820    16.8410   -20.8550 h1         1 VBX       0.047033
     28 H12         25.6260    14.5570   -16.7040 hn         1 VBX       0.319500
     29 H13         25.0740    12.3070   -16.6720 h1         1 VBX       0.039033
     30 H14         23.8020    12.7050   -17.8620 h1         1 VBX       0.039033
     31 H15         25.4500    12.2660   -18.4190 h1         1 VBX       0.039033
@<TRIPOS>BOND
     1     1    11 1   
     2     1    12 1   
     3     1    17 1   
     4     2     3 ar  
     5     2     9 ar  
     6     2    18 1   
     7     3     5 1   
     8     3    11 ar  
     9     4     5 1   
    10     4    13 1   
    11     4    19 1   
    12     5     6 2   
    13     7    12 1   
    14     7    14 2   
    15     7    15 1   
    16     8     9 ar  
    17     8    10 ar  
    18     8    20 1   
    19     9    21 1   
    20    10    11 ar  
    21    10    22 1   
    22    12    23 1   
    23    12    24 1   
    24    13    25 1   
    25    13    26 1   
    26    13    27 1   
    27    15    16 1   
    28    15    28 1   
    29    16    29 1   
    30    16    30 1   
    31    16    31 1   
@<TRIPOS>SUBSTRUCTURE
     1 VBX         1 TEMP              0 ****  ****    0 ROOT
