@<TRIPOS>MOLECULE
VBY
   49    51     1     0     0
SMALL
abcg2


@<TRIPOS>ATOM
      1 C1          49.5900    31.7560    -0.0290 c          1 VBY       0.610700
      2 C10         48.0960    33.7400     0.3990 ca         1 VBY      -0.050300
      3 C11         52.8980    27.9600    -2.0100 ca         1 VBY      -0.036000
      4 C12         53.7540    29.0020    -2.4360 ca         1 VBY      -0.095000
      5 C13         50.4790    34.0630     0.1110 ca         1 VBY      -0.149000
      6 C14         51.1040    27.1360    -0.5890 ca         1 VBY      -0.102000
      7 C16         46.8760    32.8700     0.4980 c3         1 VBY      -0.047800
      8 C17         47.9900    35.1170     0.5490 ca         1 VBY      -0.095000
      9 C18         52.9850    26.6710    -2.5870 ca         1 VBY      -0.098000
     10 C19         50.3500    35.4460     0.2400 ca         1 VBY      -0.028000
     11 C20         51.2120    25.8990    -1.1640 ca         1 VBY      -0.106000
     12 C21         49.0810    35.9730     0.4690 ca         1 VBY      -0.111000
     13 C22         52.1630    25.6590    -2.1760 ca         1 VBY      -0.107000
     14 C24         51.6780    37.5460     0.1330 c          1 VBY       0.605300
     15 C25         53.0840    38.0230     0.0730 ce         1 VBY      -0.274200
     16 C27         54.1340    37.3960     0.5940 c2         1 VBY      -0.273000
     17 C3          49.3780    33.2230     0.1820 ca         1 VBY      -0.120600
     18 C4          52.7100    30.4910    -0.8610 ca         1 VBY      -0.098000
     19 C5          51.8560    29.5140    -0.4190 ca         1 VBY      -0.076300
     20 C6          50.8690    29.7970     0.7000 c3         1 VBY       0.160000
     21 C8          51.9390    28.2090    -0.9900 ca         1 VBY      -0.019000
     22 C9          53.6620    30.2400    -1.8690 ca         1 VBY      -0.109000
     23 N2          50.5070    31.1960     0.7780 ns         1 VBY      -0.509900
     24 O7          48.9760    31.1290    -0.8790 o          1 VBY      -0.583100
     25 N01         51.5230    36.1980     0.1410 ns         1 VBY      -0.143000
     26 O26         50.7560    38.3440     0.1700 o          1 VBY      -0.573100
     27 C01         51.4290    29.3550     2.0490 c3         1 VBY      -0.105100
     28 H2          51.4630    33.6420    -0.0690 ha         1 VBY       0.108000
     29 H3          50.3630    27.2800     0.1860 ha         1 VBY       0.112000
     30 H4          47.0310    32.0270     1.1720 hc         1 VBY       0.049700
     31 H5          46.0300    33.4420     0.8750 hc         1 VBY       0.049700
     32 H6          46.5940    32.4590    -0.4720 hc         1 VBY       0.049700
     33 H7          47.0160    35.5490     0.7430 ha         1 VBY       0.118000
     34 H8          53.7200    26.4990    -3.3650 ha         1 VBY       0.112000
     35 H9          50.5610    25.0970    -0.8400 ha         1 VBY       0.112000
     36 H10         48.9280    37.0320     0.5850 ha         1 VBY       0.150000
     37 H11         52.2380    24.6770    -2.6230 ha         1 VBY       0.114000
     38 H12         53.2040    39.0010    -0.3780 ha         1 VBY       0.206000
     39 H13         55.1180    37.8410     0.5470 ha         1 VBY       0.169000
     40 H14         54.0670    36.4410     1.1010 ha         1 VBY       0.169000
     41 H15         52.6610    31.4850    -0.4340 ha         1 VBY       0.104000
     42 H16         49.9480    29.2450     0.5030 h1         1 VBY       0.079700
     43 H17         54.3170    31.0390    -2.1910 ha         1 VBY       0.110000
     44 H18         50.9340    31.7630     1.4940 hn         1 VBY       0.316500
     45 H19         52.3590    35.6540    -0.0070 hn         1 VBY       0.150000
     46 H20         50.6850    29.4840     2.8360 hc         1 VBY       0.045700
     47 H21         51.7160    28.3050     2.0240 hc         1 VBY       0.045700
     48 H22         52.3170    29.9330     2.3100 hc         1 VBY       0.045700
     49 H1          54.4810    28.8030    -3.2140 ha         1 VBY       0.113000
@<TRIPOS>BOND
     1     1    17 1   
     2     1    23 1   
     3     1    24 2   
     4     2     7 1   
     5     2     8 ar  
     6     2    17 ar  
     7     3     4 ar  
     8     3     9 ar  
     9     3    21 ar  
    10     4    22 ar  
    11     4    49 1   
    12     5    10 ar  
    13     5    17 ar  
    14     5    28 1   
    15     6    11 ar  
    16     6    21 ar  
    17     6    29 1   
    18     7    30 1   
    19     7    31 1   
    20     7    32 1   
    21     8    12 ar  
    22     8    33 1   
    23     9    13 ar  
    24     9    34 1   
    25    10    12 ar  
    26    10    25 1   
    27    11    13 ar  
    28    11    35 1   
    29    12    36 1   
    30    13    37 1   
    31    14    15 1   
    32    14    25 1   
    33    14    26 2   
    34    15    16 2   
    35    15    38 1   
    36    16    39 1   
    37    16    40 1   
    38    18    19 ar  
    39    18    22 ar  
    40    18    41 1   
    41    19    20 1   
    42    19    21 ar  
    43    20    23 1   
    44    20    27 1   
    45    20    42 1   
    46    22    43 1   
    47    23    44 1   
    48    25    45 1   
    49    27    46 1   
    50    27    47 1   
    51    27    48 1   
@<TRIPOS>SUBSTRUCTURE
     1 VBY         1 TEMP              0 ****  ****    0 ROOT
