@<TRIPOS>MOLECULE
VBY
   49    51     1     0     0
SMALL
No Charge or Current Charge


@<TRIPOS>ATOM
      1 C1          49.5470    31.6940     0.1740 c          1 VBY       0.610700
      2 C10         48.0060    33.7690     0.0690 ca         1 VBY      -0.050300
      3 C11         52.6840    27.8310    -2.1450 ca         1 VBY      -0.036000
      4 C12         53.4140    28.8290    -2.8110 ca         1 VBY      -0.095000
      5 C13         50.4110    34.0820     0.3490 ca         1 VBY      -0.149000
      6 C14         51.2560    27.0890    -0.3170 ca         1 VBY      -0.102000
      7 C16         46.7410    32.9230    -0.0590 c3         1 VBY      -0.047800
      8 C17         47.8550    35.1700     0.0880 ca         1 VBY      -0.095000
      9 C18         52.6890    26.5210    -2.6620 ca         1 VBY      -0.098000
     10 C19         50.2520    35.4790     0.3680 ca         1 VBY      -0.028000
     11 C20         51.2690    25.7850    -0.8390 ca         1 VBY      -0.106000
     12 C21         48.9600    36.0190     0.2350 ca         1 VBY      -0.111000
     13 C22         51.9810    25.5000    -2.0120 ca         1 VBY      -0.107000
     14 C24         51.6300    37.6430     0.5960 c          1 VBY       0.605300
     15 C25         53.0600    38.0630     0.7420 ce         1 VBY      -0.274200
     16 C27         54.1470    37.2460     0.7970 c2         1 VBY      -0.273000
     17 C3          49.3060    33.2010     0.2000 ca         1 VBY      -0.120600
     18 C4          52.7230    30.4530    -1.1460 ca         1 VBY      -0.098000
     19 C5          51.9610    29.4740    -0.4650 ca         1 VBY      -0.076300
     20 C6          51.1820    29.8800     0.8010 c3         1 VBY       0.160000
     21 C8          51.9570    28.1380    -0.9640 ca         1 VBY      -0.019000
     22 C9          53.4390    30.1350    -2.3080 ca         1 VBY      -0.109000
     23 N2          50.7210    31.2690     0.7580 ns         1 VBY      -0.509900
     24 O7          48.7900    30.8950    -0.3610 o          1 VBY      -0.583100
     25 N01         51.4260    36.2710     0.5140 ns         1 VBY      -0.143000
     26 O26         50.7360    38.4780     0.5590 o          1 VBY      -0.573100
     27 C01         52.0190    29.6450     2.0710 c3         1 VBY      -0.105100
     28 H2          51.4210    33.6870     0.4270 ha         1 VBY       0.108000
     29 H3          50.7010    27.2550     0.6000 ha         1 VBY       0.112000
     30 H4          46.6910    32.1570     0.7240 hc         1 VBY       0.049700
     31 H5          45.8320    33.5290     0.0340 hc         1 VBY       0.049700
     32 H6          46.6960    32.4230    -1.0340 hc         1 VBY       0.049700
     33 H7          46.8650    35.6110    -0.0090 ha         1 VBY       0.118000
     34 H8          53.2450    26.2920    -3.5690 ha         1 VBY       0.112000
     35 H9          50.7250    24.9920    -0.3300 ha         1 VBY       0.112000
     36 H10         48.7870    37.0900     0.2410 ha         1 VBY       0.150000
     37 H11         51.9890    24.4890    -2.4150 ha         1 VBY       0.114000
     38 H12         53.1910    39.1430     0.8050 ha         1 VBY       0.206000
     39 H13         55.1530    37.6550     0.9050 ha         1 VBY       0.169000
     40 H14         54.0830    36.1590     0.7390 ha         1 VBY       0.169000
     41 H15         52.7680    31.4740    -0.7770 ha         1 VBY       0.104000
     42 H16         50.2790    29.2620     0.8810 h1         1 VBY       0.079700
     43 H17         54.0140    30.9030    -2.8200 ha         1 VBY       0.110000
     44 H18         51.2890    31.9780     1.2020 hn         1 VBY       0.316500
     45 H19         52.2770    35.7290     0.5670 hn         1 VBY       0.150000
     46 H20         51.4400    29.8980     2.9680 hc         1 VBY       0.045700
     47 H21         52.3210    28.5940     2.1450 hc         1 VBY       0.045700
     48 H22         52.9270    30.2610     2.0580 hc         1 VBY       0.045700
     49 H1          53.9720    28.5920    -3.7150 ha         1 VBY       0.113000
@<TRIPOS>BOND
     1     1    17 1   
     2     1    23 1   
     3     1    24 2   
     4     2     7 1   
     5     2     8 ar  
     6     2    17 ar  
     7     3     4 ar  
     8     3     9 ar  
     9     3    21 ar  
    10     4    22 ar  
    11     4    49 1   
    12     5    10 ar  
    13     5    17 ar  
    14     5    28 1   
    15     6    11 ar  
    16     6    21 ar  
    17     6    29 1   
    18     7    30 1   
    19     7    31 1   
    20     7    32 1   
    21     8    12 ar  
    22     8    33 1   
    23     9    13 ar  
    24     9    34 1   
    25    10    12 ar  
    26    10    25 1   
    27    11    13 ar  
    28    11    35 1   
    29    12    36 1   
    30    13    37 1   
    31    14    15 1   
    32    14    25 1   
    33    14    26 2   
    34    15    16 2   
    35    15    38 1   
    36    16    39 1   
    37    16    40 1   
    38    18    19 ar  
    39    18    22 ar  
    40    18    41 1   
    41    19    20 1   
    42    19    21 ar  
    43    20    23 1   
    44    20    27 1   
    45    20    42 1   
    46    22    43 1   
    47    23    44 1   
    48    25    45 1   
    49    27    46 1   
    50    27    47 1   
    51    27    48 1   
@<TRIPOS>SUBSTRUCTURE
     1 VBY         1 TEMP              0 ****  ****    0 ROOT
