@<TRIPOS>MOLECULE
VBZ
   41    43     1     0     0
SMALL
abcg2


@<TRIPOS>ATOM
      1 O2          29.3100    45.1580    -0.8280 oh         1 VBZ      -0.728000
      2 C2          28.0440    45.8090    -0.7400 c6         1 VBZ       0.139300
      3 C3          28.1570    47.1130     0.1180 c6         1 VBZ       0.109300
      4 O3          29.3920    47.1790     0.8140 oh         1 VBZ      -0.669000
      5 C4          27.9790    48.3330    -0.8070 c6         1 VBZ       0.156000
      6 O4          28.2320    49.5320    -0.0830 oh         1 VBZ      -0.711000
      7 C5          26.5140    48.3130    -1.2680 c6         1 VBZ      -0.087700
      8 C6          26.0080    49.5880    -1.9440 c3         1 VBZ       0.169600
      9 O6          26.5880    49.8940    -3.2160 oh         1 VBZ      -0.660000
     10 C7          26.3010    47.0280    -2.1090 c6         1 VBZ      -0.097400
     11 C8          28.9440    48.2260    -1.9960 c6         1 VBZ       0.146800
     12 N1          28.7330    46.9450    -2.7030 n3         1 VBZ      -0.774600
     13 C1          27.5910    46.2060    -2.1510 c6         1 VBZ       0.152500
     14 C9          28.7930    47.0430    -4.1550 c3         1 VBZ       0.236100
     15 C10         30.1850    47.3960    -4.6240 ca         1 VBZ      -0.094300
     16 C11         31.2630    46.5660    -4.3100 ca         1 VBZ      -0.095500
     17 C12         32.5490    46.8830    -4.7280 ca         1 VBZ      -0.112500
     18 C15         30.4230    48.5510    -5.3650 ca         1 VBZ      -0.095500
     19 C14         31.7110    48.8730    -5.7880 ca         1 VBZ      -0.112500
     20 C13         32.7770    48.0410    -5.4700 ca         1 VBZ      -0.105000
     21 H2          29.7130    45.5580    -1.6280 ho         1 VBZ       0.537000
     22 HA          27.3470    45.1090    -0.2810 h1         1 VBZ       0.080700
     23 H3          27.3570    47.1390     0.8620 h1         1 VBZ       0.069700
     24 H1          27.4550    45.3070    -2.7530 h1         1 VBZ       0.072700
     25 HB          29.9460    46.4750     0.4330 ho         1 VBZ       0.469000
     26 H4          29.0520    49.3870     0.4110 ho         1 VBZ       0.525000
     27 H5          25.9140    48.2390    -0.3550 hc         1 VBZ       0.062700
     28 H8C1        28.7700    49.0720    -2.6600 h1         1 VBZ       0.067200
     29 H8C2        29.9730    48.2890    -1.6290 h1         1 VBZ       0.067200
     30 H6C1        24.9200    49.5120    -2.0430 h1         1 VBZ       0.054200
     31 H6C2        26.2270    50.4430    -1.3060 h1         1 VBZ       0.054200
     32 H7C1        25.4920    46.4240    -1.6940 hc         1 VBZ       0.048200
     33 H7C2        26.0130    47.2700    -3.1340 hc         1 VBZ       0.048200
     34 H6          26.2340    49.2890    -3.8780 ho         1 VBZ       0.430000
     35 H9C1        28.5070    46.0690    -4.5590 h1         1 VBZ       0.039700
     36 H9C2        28.0850    47.7830    -4.5500 h1         1 VBZ       0.039700
     37 H11         31.0880    45.6670    -3.7310 ha         1 VBZ       0.113500
     38 H15         29.5950    49.2060    -5.6070 ha         1 VBZ       0.113500
     39 H12         33.3750    46.2280    -4.4770 ha         1 VBZ       0.114000
     40 H13         33.7800    48.2900    -5.7940 ha         1 VBZ       0.113000
     41 H14         31.8790    49.7770    -6.3610 ha         1 VBZ       0.114000
@<TRIPOS>BOND
     1     1     2 1   
     2     1    21 1   
     3     2     3 1   
     4     2    13 1   
     5     2    22 1   
     6     3     4 1   
     7     3     5 1   
     8     3    23 1   
     9     4    25 1   
    10     5     6 1   
    11     5     7 1   
    12     5    11 1   
    13     6    26 1   
    14     7     8 1   
    15     7    10 1   
    16     7    27 1   
    17     8     9 1   
    18     8    30 1   
    19     8    31 1   
    20     9    34 1   
    21    10    13 1   
    22    10    32 1   
    23    10    33 1   
    24    11    12 1   
    25    11    28 1   
    26    11    29 1   
    27    12    13 1   
    28    12    14 1   
    29    13    24 1   
    30    14    15 1   
    31    14    35 1   
    32    14    36 1   
    33    15    16 ar  
    34    15    18 ar  
    35    16    17 ar  
    36    16    37 1   
    37    17    20 ar  
    38    17    39 1   
    39    18    19 ar  
    40    18    38 1   
    41    19    20 ar  
    42    19    41 1   
    43    20    40 1   
@<TRIPOS>SUBSTRUCTURE
     1 VBZ         1 TEMP              0 ****  ****    0 ROOT
