@<TRIPOS>MOLECULE
VBZ
   41    43     1     0     0
SMALL
No Charge or Current Charge


@<TRIPOS>ATOM
      1 O2          29.2740    45.2220    -0.6620 oh         1 VBZ      -0.728000
      2 C2          27.9630    45.8070    -0.5720 c6         1 VBZ       0.139300
      3 C3          28.0600    47.1580     0.2270 c6         1 VBZ       0.109300
      4 O3          29.2540    47.1630     1.0290 oh         1 VBZ      -0.669000
      5 C4          28.0220    48.3750    -0.7670 c6         1 VBZ       0.156000
      6 O4          28.3170    49.5680    -0.0290 oh         1 VBZ      -0.711000
      7 C5          26.5720    48.4010    -1.3660 c6         1 VBZ      -0.087700
      8 C6          26.1750    49.6820    -2.1760 c3         1 VBZ       0.169600
      9 O6          26.8080    49.7920    -3.4580 oh         1 VBZ      -0.660000
     10 C7          26.3190    47.0520    -2.1310 c6         1 VBZ      -0.097400
     11 C8          29.0580    48.1170    -1.9290 c6         1 VBZ       0.146800
     12 N1          28.7880    46.8000    -2.6310 n3         1 VBZ      -0.774600
     13 C1          27.5740    46.1220    -2.0550 c6         1 VBZ       0.152500
     14 C9          28.8280    46.8760    -4.1120 c3         1 VBZ       0.236100
     15 C10         30.1780    47.3530    -4.6380 ca         1 VBZ      -0.094300
     16 C11         31.3070    46.5160    -4.5500 ca         1 VBZ      -0.095500
     17 C12         32.5540    46.9510    -5.0330 ca         1 VBZ      -0.112500
     18 C15         30.3100    48.6320    -5.2160 ca         1 VBZ      -0.095500
     19 C14         31.5570    49.0670    -5.6980 ca         1 VBZ      -0.112500
     20 C13         32.6790    48.2270    -5.6080 ca         1 VBZ      -0.105000
     21 H2          29.5570    45.6350    -1.5290 ho         1 VBZ       0.537000
     22 HA          27.2320    45.1300    -0.1050 h1         1 VBZ       0.080700
     23 H3          27.1800    47.2210     0.8860 h1         1 VBZ       0.069700
     24 H1          27.3630    45.1760    -2.5780 h1         1 VBZ       0.072700
     25 HB          29.7120    46.3400     0.7170 ho         1 VBZ       0.469000
     26 H4          28.8850    49.2440     0.7120 ho         1 VBZ       0.525000
     27 H5          25.8760    48.4240    -0.5150 hc         1 VBZ       0.062700
     28 H8C1        29.0290    48.9600    -2.6320 h1         1 VBZ       0.067200
     29 H8C2        30.0760    48.1100    -1.5110 h1         1 VBZ       0.067200
     30 H6C1        25.0840    49.6620    -2.3110 h1         1 VBZ       0.054200
     31 H6C2        26.3980    50.5690    -1.5670 h1         1 VBZ       0.054200
     32 H7C1        25.4570    46.5340    -1.6890 hc         1 VBZ       0.048200
     33 H7C2        26.0490    47.2260    -3.1810 hc         1 VBZ       0.048200
     34 H6          26.6630    48.9370    -3.9140 ho         1 VBZ       0.430000
     35 H9C1        28.6310    45.8830    -4.5370 h1         1 VBZ       0.039700
     36 H9C2        28.0400    47.5410    -4.4840 h1         1 VBZ       0.039700
     37 H11         31.2170    45.5280    -4.1030 ha         1 VBZ       0.113500
     38 H15         29.4470    49.2910    -5.2870 ha         1 VBZ       0.113500
     39 H12         33.4220    46.2990    -4.9600 ha         1 VBZ       0.114000
     40 H13         33.6440    48.5640    -5.9810 ha         1 VBZ       0.113000
     41 H14         31.6530    50.0560    -6.1420 ha         1 VBZ       0.114000
@<TRIPOS>BOND
     1     1     2 1   
     2     1    21 1   
     3     2     3 1   
     4     2    13 1   
     5     2    22 1   
     6     3     4 1   
     7     3     5 1   
     8     3    23 1   
     9     4    25 1   
    10     5     6 1   
    11     5     7 1   
    12     5    11 1   
    13     6    26 1   
    14     7     8 1   
    15     7    10 1   
    16     7    27 1   
    17     8     9 1   
    18     8    30 1   
    19     8    31 1   
    20     9    34 1   
    21    10    13 1   
    22    10    32 1   
    23    10    33 1   
    24    11    12 1   
    25    11    28 1   
    26    11    29 1   
    27    12    13 1   
    28    12    14 1   
    29    13    24 1   
    30    14    15 1   
    31    14    35 1   
    32    14    36 1   
    33    15    16 ar  
    34    15    18 ar  
    35    16    17 ar  
    36    16    37 1   
    37    17    20 ar  
    38    17    39 1   
    39    18    19 ar  
    40    18    38 1   
    41    19    20 ar  
    42    19    41 1   
    43    20    40 1   
@<TRIPOS>SUBSTRUCTURE
     1 VBZ         1 TEMP              0 ****  ****    0 ROOT
