@<TRIPOS>MOLECULE
VC1
   49    51     1     0     0
SMALL
abcg2


@<TRIPOS>ATOM
      1 O01         -5.9900     0.4670    -0.0380 oh         1 VC1      -0.513100
      2 C02         -4.7560     0.9820     0.0620 ca         1 VC1       0.229100
      3 C03         -4.5370     2.2980     0.4410 ca         1 VC1      -0.317000
      4 C04         -3.2410     2.7830     0.5370 ca         1 VC1       0.213100
      5 O05         -2.9670     4.0420     0.8860 oh         1 VC1      -0.506100
      6 C06         -2.1700     1.9330     0.2560 ca         1 VC1       0.027000
      7 CL7         -0.5760     2.6060     0.3600 cl         1 VC1      -0.180000
      8 C08         -2.3670     0.6050    -0.1100 ca         1 VC1       0.051700
      9 C09         -1.1920    -0.2910    -0.3960 c3         1 VC1      -0.036100
     10 C10         -0.5390    -0.8230     0.8910 c3         1 VC1      -0.029100
     11 C11          0.5710    -1.7960     0.5930 ca         1 VC1      -0.081300
     12 C12          1.8860    -1.3780     0.3290 ca         1 VC1      -0.066300
     13 C13          2.2340     0.0970     0.3750 c3         1 VC1       0.012200
     14 C14          3.6800     0.4190     0.1310 ca         1 VC1      -0.095300
     15 C15          4.5880     0.4750     1.1850 ca         1 VC1      -0.079500
     16 C16          5.9300     0.7520     0.9670 ca         1 VC1      -0.152000
     17 C17          6.3560     0.9720    -0.3280 ca         1 VC1       0.168000
     18 F18          7.6540     1.2410    -0.5500 f          1 VC1      -0.181000
     19 C19          5.4880     0.9270    -1.4020 ca         1 VC1      -0.152000
     20 C20          4.1500     0.6490    -1.1600 ca         1 VC1      -0.079500
     21 C21          2.8470    -2.3420     0.0340 ca         1 VC1      -0.105000
     22 C22          2.5300    -3.6930    -0.0110 ca         1 VC1      -0.108000
     23 C23          1.2330    -4.1050     0.2470 ca         1 VC1      -0.113000
     24 C24          0.2680    -3.1540     0.5470 ca         1 VC1      -0.107000
     25 C25         -3.6790     0.1320    -0.2020 ca         1 VC1      -0.197600
     26 C26         -3.9880    -1.2620    -0.6330 c          1 VC1       0.621700
     27 O27         -3.5510    -2.1600     0.2350 os         1 VC1      -0.437100
     28 C28         -3.7530    -3.5390    -0.0860 c3         1 VC1       0.148900
     29 O29         -4.5800    -1.5380    -1.6450 o          1 VC1      -0.467000
     30 H1          -6.6560     1.1300     0.1800 ho         1 VC1       0.473000
     31 H2          -5.3770     2.9490     0.6590 ha         1 VC1       0.122000
     32 H3          -3.7810     4.5300     1.0590 ho         1 VC1       0.473000
     33 H4          -1.4970    -1.1360    -1.0140 hc         1 VC1       0.062200
     34 H5          -0.4550     0.2530    -0.9900 hc         1 VC1       0.062200
     35 H6          -0.1790     0.0150     1.4910 hc         1 VC1       0.058700
     36 H7          -1.3020    -1.3230     1.4880 hc         1 VC1       0.058700
     37 H8           1.6260     0.6300    -0.3610 hc         1 VC1       0.059700
     38 H9           1.9380     0.5040     1.3450 hc         1 VC1       0.059700
     39 H10          4.2450     0.2990     2.1970 ha         1 VC1       0.119000
     40 H11          6.6310     0.7960     1.7910 ha         1 VC1       0.132000
     41 H12          5.8460     1.1090    -2.4060 ha         1 VC1       0.132000
     42 H13          3.4610     0.6100    -1.9950 ha         1 VC1       0.119000
     43 H14          3.8660    -2.0400    -0.1670 ha         1 VC1       0.119000
     44 H15          3.3000    -4.4180    -0.2430 ha         1 VC1       0.113000
     45 H16          0.9720    -5.1550     0.2200 ha         1 VC1       0.112000
     46 H17         -0.7460    -3.4730     0.7600 ha         1 VC1       0.110000
     47 H18         -3.2490    -3.8090    -1.0140 h1         1 VC1       0.048700
     48 H19         -3.3240    -4.1030     0.7370 h1         1 VC1       0.048700
     49 H20         -4.8140    -3.7740    -0.1700 h1         1 VC1       0.048700
@<TRIPOS>BOND
     1     1     2 1   
     2     1    30 1   
     3     2     3 ar  
     4     2    25 ar  
     5     3     4 ar  
     6     3    31 1   
     7     4     5 1   
     8     4     6 ar  
     9     5    32 1   
    10     6     7 1   
    11     6     8 ar  
    12     8     9 1   
    13     8    25 ar  
    14     9    10 1   
    15     9    33 1   
    16     9    34 1   
    17    10    11 1   
    18    10    35 1   
    19    10    36 1   
    20    11    12 ar  
    21    11    24 ar  
    22    12    13 1   
    23    12    21 ar  
    24    13    14 1   
    25    13    37 1   
    26    13    38 1   
    27    14    15 ar  
    28    14    20 ar  
    29    15    16 ar  
    30    15    39 1   
    31    16    17 ar  
    32    16    40 1   
    33    17    18 1   
    34    17    19 ar  
    35    19    20 ar  
    36    19    41 1   
    37    20    42 1   
    38    21    22 ar  
    39    21    43 1   
    40    22    23 ar  
    41    22    44 1   
    42    23    24 ar  
    43    23    45 1   
    44    24    46 1   
    45    25    26 1   
    46    26    27 1   
    47    26    29 2   
    48    27    28 1   
    49    28    47 1   
    50    28    48 1   
    51    28    49 1   
@<TRIPOS>SUBSTRUCTURE
     1 VC1         1 TEMP              0 ****  ****    0 ROOT
