@<TRIPOS>MOLECULE
VC1
   49    51     1     0     0
SMALL
No Charge or Current Charge


@<TRIPOS>ATOM
      1 O01         -4.9950     1.1220    -1.2110 oh         1 VC1      -0.513100
      2 C02         -3.8110     1.4200    -0.6110 ca         1 VC1       0.229100
      3 C03         -3.6740     2.6530     0.0310 ca         1 VC1      -0.317000
      4 C04         -2.4710     2.9770     0.6670 ca         1 VC1       0.213100
      5 O05         -2.3630     4.1870     1.2890 oh         1 VC1      -0.506100
      6 C06         -1.3930     2.0660     0.6640 ca         1 VC1       0.027000
      7 Cl7          0.1130     2.5190     1.4810 cl         1 VC1      -0.180000
      8 C08         -1.5230     0.8120     0.0130 ca         1 VC1       0.051700
      9 C09         -0.3490    -0.1790    -0.0080 c3         1 VC1      -0.036100
     10 C10         -0.2210    -0.9850     1.3060 c3         1 VC1      -0.029100
     11 C11          0.6980    -2.2050     1.1750 ca         1 VC1      -0.081300
     12 C12          2.1040    -2.1510     1.3860 ca         1 VC1      -0.066300
     13 C13          2.8450    -0.8600     1.7530 c3         1 VC1       0.012200
     14 C14          3.1480     0.0470     0.5600 ca         1 VC1      -0.095300
     15 C15          3.2850     1.4350     0.7670 ca         1 VC1      -0.079500
     16 C16          3.5510     2.2930    -0.3140 ca         1 VC1      -0.152000
     17 C17          3.6900     1.7670    -1.6060 ca         1 VC1       0.168000
     18 F18          3.9440     2.5920    -2.6450 f          1 VC1      -0.181000
     19 C19          3.5710     0.3870    -1.8240 ca         1 VC1      -0.152000
     20 C20          3.3040    -0.4740    -0.7440 ca         1 VC1      -0.079500
     21 C21          2.8670    -3.3310     1.2450 ca         1 VC1      -0.105000
     22 C22          2.2590    -4.5470     0.9000 ca         1 VC1      -0.108000
     23 C23          0.8750    -4.6000     0.6930 ca         1 VC1      -0.113000
     24 C24          0.1030    -3.4370     0.8310 ca         1 VC1      -0.107000
     25 C25         -2.7510     0.4980    -0.6250 ca         1 VC1      -0.197600
     26 C26         -2.9540    -0.8070    -1.3230 c          1 VC1       0.621700
     27 O27         -3.1200    -1.8540    -0.4540 os         1 VC1      -0.437100
     28 C28         -3.3310    -3.1640    -1.0090 c3         1 VC1       0.148900
     29 O29         -2.9510    -0.9180    -2.5420 o          1 VC1      -0.467000
     30 H1          -5.5970     1.8860    -1.0910 ho         1 VC1       0.473000
     31 H2          -4.5020     3.3580     0.0390 ha         1 VC1       0.122000
     32 H3          -3.2120     4.6640     1.1760 ho         1 VC1       0.473000
     33 H4          -0.4410    -0.8820    -0.8440 hc         1 VC1       0.062200
     34 H5           0.5870     0.3530    -0.2040 hc         1 VC1       0.062200
     35 H6           0.1010    -0.3250     2.1170 hc         1 VC1       0.058700
     36 H7          -1.2230    -1.3210     1.6000 hc         1 VC1       0.058700
     37 H8           2.2840    -0.3080     2.5150 hc         1 VC1       0.059700
     38 H9           3.7930    -1.1090     2.2460 hc         1 VC1       0.059700
     39 H10          3.1780     1.8510     1.7670 ha         1 VC1       0.119000
     40 H11          3.6480     3.3640    -0.1510 ha         1 VC1       0.132000
     41 H12          3.6850    -0.0150    -2.8270 ha         1 VC1       0.132000
     42 H13          3.2160    -1.5410    -0.9310 ha         1 VC1       0.119000
     43 H14          3.9440    -3.3050     1.3990 ha         1 VC1       0.119000
     44 H15          2.8610    -5.4470     0.7940 ha         1 VC1       0.113000
     45 H16          0.3990    -5.5410     0.4270 ha         1 VC1       0.112000
     46 H17         -0.9700    -3.4950     0.6710 ha         1 VC1       0.110000
     47 H18         -2.4750    -3.4710    -1.6240 h1         1 VC1       0.048700
     48 H19         -3.4550    -3.9030    -0.2070 h1         1 VC1       0.048700
     49 H20         -4.2350    -3.1850    -1.6320 h1         1 VC1       0.048700
@<TRIPOS>BOND
     1     1     2 1   
     2     1    30 1   
     3     2     3 ar  
     4     2    25 ar  
     5     3     4 ar  
     6     3    31 1   
     7     4     5 1   
     8     4     6 ar  
     9     5    32 1   
    10     6     7 1   
    11     6     8 ar  
    12     8     9 1   
    13     8    25 ar  
    14     9    10 1   
    15     9    33 1   
    16     9    34 1   
    17    10    11 1   
    18    10    35 1   
    19    10    36 1   
    20    11    12 ar  
    21    11    24 ar  
    22    12    13 1   
    23    12    21 ar  
    24    13    14 1   
    25    13    37 1   
    26    13    38 1   
    27    14    15 ar  
    28    14    20 ar  
    29    15    16 ar  
    30    15    39 1   
    31    16    17 ar  
    32    16    40 1   
    33    17    18 1   
    34    17    19 ar  
    35    19    20 ar  
    36    19    41 1   
    37    20    42 1   
    38    21    22 ar  
    39    21    43 1   
    40    22    23 ar  
    41    22    44 1   
    42    23    24 ar  
    43    23    45 1   
    44    24    46 1   
    45    25    26 1   
    46    26    27 1   
    47    26    29 2   
    48    27    28 1   
    49    28    47 1   
    50    28    48 1   
    51    28    49 1   
@<TRIPOS>SUBSTRUCTURE
     1 VC1         1 TEMP              0 ****  ****    0 ROOT
