@<TRIPOS>MOLECULE
VC2
   29    30     1     0     0
SMALL
bcc


@<TRIPOS>ATOM
      1 O            0.6060    -2.0880    -1.2620 o          1 VC2      -0.817800
      2 C            1.2410    -1.8650    -0.2120 c          1 VC2       0.929600
      3 OXT          2.0830    -2.6130     0.3220 o          1 VC2      -0.817800
      4 CA           0.9700    -0.5310     0.5230 c5         1 VC2       0.111500
      5 N           -0.3020     0.0540     0.1970 n3         1 VC2      -0.836600
      6 CB           2.0260     0.5670     0.2360 c5         1 VC2       0.080100
      7 CG2          3.4480     0.0790    -0.0020 c3         1 VC2      -0.071600
      8 CG1          2.0180     1.5980     1.3610 c3         1 VC2      -0.071600
      9 SAI          1.4010     1.3170    -1.3210 ss         1 VC2      -0.409200
     10 CAO         -0.3440     0.9790    -0.8970 c5         1 VC2       0.375600
     11 CAG         -1.1160     2.2110    -0.4310 c5         1 VC2       0.010700
     12 SAH         -2.4010     1.5440     0.6590 ss         1 VC2      -0.406200
     13 CAK         -1.3780     0.0990     1.1350 c5         1 VC2       0.378600
     14 CAF         -2.2290    -1.1720     1.1520 c3         1 VC2       0.042700
     15 SAE         -2.7570    -1.7140    -0.4930 sh         1 VC2      -0.505900
     16 H2           0.9920    -0.7390     1.6000 h1         1 VC2       0.047700
     17 H4           3.5210    -0.5970    -0.8510 hc         1 VC2       0.036367
     18 H5           4.1100     0.9260    -0.1880 hc         1 VC2       0.036367
     19 H6           3.8180    -0.4440     0.8800 hc         1 VC2       0.036367
     20 H7           2.4460     1.1680     2.2690 hc         1 VC2       0.036367
     21 H8           2.6090     2.4740     1.0920 hc         1 VC2       0.036367
     22 H9           1.0080     1.9340     1.5980 hc         1 VC2       0.036367
     23 H10         -0.8170     0.5660    -1.7940 h2         1 VC2       0.095700
     24 H11         -0.4740     2.9070     0.1100 h1         1 VC2       0.068200
     25 H12         -1.5830     2.7400    -1.2600 h1         1 VC2       0.068200
     26 H13         -0.9970     0.2470     2.1540 h2         1 VC2       0.048700
     27 H14         -1.6570    -1.9710     1.6270 h1         1 VC2       0.064200
     28 H15         -1.5100    -1.8590    -0.9840 hs         1 VC2       0.333800
     29 H3          -3.1290    -1.0280     1.7530 h1         1 VC2       0.064200
@<TRIPOS>BOND
     1     1     2 1   
     2     2     3 1   
     3     2     4 1   
     4     4     5 1   
     5     4     6 1   
     6     4    16 1   
     7     5    10 1   
     8     5    13 1   
     9     6     7 1   
    10     6     8 1   
    11     6     9 1   
    12     7    17 1   
    13     7    18 1   
    14     7    19 1   
    15     8    20 1   
    16     8    21 1   
    17     8    22 1   
    18     9    10 1   
    19    10    11 1   
    20    10    23 1   
    21    11    12 1   
    22    11    24 1   
    23    11    25 1   
    24    12    13 1   
    25    13    14 1   
    26    13    26 1   
    27    14    15 1   
    28    14    27 1   
    29    14    29 1   
    30    15    28 1   
@<TRIPOS>SUBSTRUCTURE
     1 VC2         1 TEMP              0 ****  ****    0 ROOT
