@<TRIPOS>MOLECULE
VC2
   29    30     1     0     0
SMALL
No Charge or Current Charge


@<TRIPOS>ATOM
      1 O            0.6580    -1.8140    -0.9850 o          1 VC2      -0.712500
      2 C            0.9690    -1.6930     0.1940 c          1 VC2       0.719000
      3 OXT          1.2310    -2.6720     0.8790 o          1 VC2      -0.712500
      4 CA           0.9370    -0.2650     0.9050 c5         1 VC2       0.111500
      5 N           -0.2640     0.6500     0.7640 n3         1 VC2      -0.836600
      6 CB           2.0900     0.6700     0.3420 c5         1 VC2       0.128000
      7 CG2          3.3120    -0.0580    -0.2830 c3         1 VC2      -0.071600
      8 CG1          2.6240     1.6200     1.4470 c3         1 VC2      -0.071600
      9 SAI          1.2940     1.7530    -0.9760 ss         1 VC2      -0.505000
     10 CAO         -0.3770     1.0340    -0.6360 c5         1 VC2       0.423500
     11 CAG         -1.4790     2.1210    -0.5730 c5         1 VC2       0.058600
     12 SAH         -2.7340     1.4710     0.6630 ss         1 VC2      -0.502000
     13 CAK         -1.5750     0.1220     1.2380 c5         1 VC2       0.426500
     14 CAF         -2.1230    -1.2750     0.7770 c3         1 VC2       0.090600
     15 SAE         -2.4040    -1.6800    -1.0280 sh         1 VC2      -0.553800
     16 H2           1.1200    -0.4680     1.9690 h1         1 VC2       0.047700
     17 H4           3.0400    -0.6210    -1.1820 hc         1 VC2       0.036367
     18 H5           4.0880     0.6560    -0.5830 hc         1 VC2       0.036367
     19 H6           3.7640    -0.7580     0.4310 hc         1 VC2       0.036367
     20 H7           3.1090     1.0560     2.2530 hc         1 VC2       0.036367
     21 H8           3.3580     2.3290     1.0470 hc         1 VC2       0.036367
     22 H9           1.8130     2.2060     1.8960 hc         1 VC2       0.036367
     23 H10         -0.6170     0.2140    -1.3210 h2         1 VC2       0.095700
     24 H11         -1.0720     3.0690    -0.2010 h1         1 VC2       0.068200
     25 H12         -1.9380     2.2980    -1.5540 h1         1 VC2       0.068200
     26 H13         -1.5810     0.1180     2.3360 h2         1 VC2       0.048700
     27 H14         -1.4720    -2.0500     1.1960 h1         1 VC2       0.064200
     28 H15         -1.0730    -1.8420    -1.3160 hs         1 VC2       0.333800
     29 H3          -3.0940    -1.4010     1.2720 h1         1 VC2       0.064200
@<TRIPOS>BOND
     1     1     2 1   
     2     2     3 1   
     3     2     4 1   
     4     4     5 1   
     5     4     6 1   
     6     4    16 1   
     7     5    10 1   
     8     5    13 1   
     9     6     7 1   
    10     6     8 1   
    11     6     9 1   
    12     7    17 1   
    13     7    18 1   
    14     7    19 1   
    15     8    20 1   
    16     8    21 1   
    17     8    22 1   
    18     9    10 1   
    19    10    11 1   
    20    10    23 1   
    21    11    12 1   
    22    11    24 1   
    23    11    25 1   
    24    12    13 1   
    25    13    14 1   
    26    13    26 1   
    27    14    15 1   
    28    14    27 1   
    29    14    29 1   
    30    15    28 1   
@<TRIPOS>SUBSTRUCTURE
     1 VC2         1 TEMP              0 ****  ****    0 ROOT
