@<TRIPOS>MOLECULE
VC3
   21    22     1     0     0
SMALL
No Charge or Current Charge


@<TRIPOS>ATOM
      1 N1          73.8170    66.8260     0.8880 no         1 VC3       0.695200
      2 N2          78.9890    65.7300     4.8870 nc         1 VC3      -0.508800
      3 C3          78.7140    65.2990     3.6660 cd         1 VC3       0.282500
      4 N4          80.2190    65.1540     5.1660 na         1 VC3       0.010800
      5 C5          75.0750    66.4320     1.6030 ca         1 VC3      -0.181200
      6 C6          79.7440    64.4620     3.1720 cd         1 VC3      -0.204000
      7 O7          73.6830    66.4820    -0.2950 o          1 VC3      -0.401500
      8 O8          72.9670    67.4760     1.5120 o          1 VC3      -0.401500
      9 C9          77.4640    65.6790     2.9620 ca         1 VC3      -0.059500
     10 C10         80.7120    64.3660     4.1300 cc         1 VC3      -0.173000
     11 C11         76.0780    65.6910     0.9390 ca         1 VC3      -0.047500
     12 C12         75.2800    66.7970     2.9520 ca         1 VC3      -0.047500
     13 C13         77.2570    65.3230     1.6120 ca         1 VC3      -0.109500
     14 C14         76.4610    66.4270     3.6190 ca         1 VC3      -0.109500
     15 H4          80.6840    65.3180     6.0600 hn         1 VC3       0.377000
     16 H6          79.7690    63.9730     2.2050 ha         1 VC3       0.149000
     17 H10         81.6570    63.8350     4.1680 h4         1 VC3       0.159000
     18 H11         75.9550    65.3950    -0.1020 ha         1 VC3       0.150500
     19 H12         74.5300    67.3710     3.4950 ha         1 VC3       0.150500
     20 H13         78.0080    64.7590     1.0660 ha         1 VC3       0.135000
     21 H14         76.5880    66.7240     4.6570 ha         1 VC3       0.135000
@<TRIPOS>BOND
     1     1     5 1   
     2     1     7 1   
     3     1     8 1   
     4     2     3 2   
     5     2     4 1   
     6     3     6 1   
     7     3     9 1   
     8     4    10 1   
     9     4    15 1   
    10     5    11 ar  
    11     5    12 ar  
    12     6    10 2   
    13     6    16 1   
    14     9    13 ar  
    15     9    14 ar  
    16    10    17 1   
    17    11    13 ar  
    18    11    18 1   
    19    12    14 ar  
    20    12    19 1   
    21    13    20 1   
    22    14    21 1   
@<TRIPOS>SUBSTRUCTURE
     1 VC3         1 TEMP              0 ****  ****    0 ROOT
