@<TRIPOS>MOLECULE
VC3
   21    22     1     0     0
SMALL
bcc


@<TRIPOS>ATOM
      1 N1          73.8960    66.8110     0.9610 no         1 VC3       0.315200
      2 N2          78.9340    65.6560     4.8490 nc         1 VC3      -0.508800
      3 C3          78.6940    65.2760     3.6000 cd         1 VC3       0.347800
      4 N4          80.1100    65.1390     5.1480 na         1 VC3       0.010400
      5 C5          75.1200    66.4200     1.6340 ca         1 VC3      -0.181200
      6 C6          79.7590    64.4950     3.1030 cd         1 VC3      -0.287300
      7 O7          73.7580    66.4950    -0.1990 o          1 VC3      -0.211500
      8 O8          73.0720    67.4330     1.5910 o          1 VC3      -0.211500
      9 C9          77.4610    65.6710     2.9250 ca         1 VC3      -0.059500
     10 C10         80.6530    64.4330     4.1420 cc         1 VC3      -0.140300
     11 C11         76.0610    65.6640     0.9510 ca         1 VC3      -0.065500
     12 C12         75.3270    66.8090     2.9520 ca         1 VC3      -0.065500
     13 C13         77.2230    65.2950     1.6010 ca         1 VC3      -0.127500
     14 C14         76.4940    66.4340     3.5870 ca         1 VC3      -0.127500
     15 H4          80.5070    65.2980     6.0610 hn         1 VC3       0.326700
     16 H6          79.8650    64.0370     2.1340 ha         1 VC3       0.167000
     17 H10         81.6120    63.9510     4.2360 h4         1 VC3       0.177000
     18 H11         75.9010    65.3590    -0.0720 ha         1 VC3       0.168500
     19 H12         74.5960    67.4000     3.4830 ha         1 VC3       0.168500
     20 H13         77.9510    64.7040     1.0610 ha         1 VC3       0.153000
     21 H14         76.6560    66.7380     4.6110 ha         1 VC3       0.153000
@<TRIPOS>BOND
     1     1     5 1   
     2     1     7 1   
     3     1     8 1   
     4     2     3 2   
     5     2     4 1   
     6     3     6 1   
     7     3     9 1   
     8     4    10 1   
     9     4    15 1   
    10     5    11 ar  
    11     5    12 ar  
    12     6    10 2   
    13     6    16 1   
    14     9    13 ar  
    15     9    14 ar  
    16    10    17 1   
    17    11    13 ar  
    18    11    18 1   
    19    12    14 ar  
    20    12    19 1   
    21    13    20 1   
    22    14    21 1   
@<TRIPOS>SUBSTRUCTURE
     1 VC3         1 TEMP              0 ****  ****    0 ROOT
