@<TRIPOS>MOLECULE
VC4
   48    50     1     0     0
SMALL
No Charge or Current Charge


@<TRIPOS>ATOM
      1 O01         -4.8420    -0.4080    -1.6920 oh         1 VC4      -0.517100
      2 C02         -3.8130    -0.8490    -0.9190 ca         1 VC4       0.229100
      3 C03         -3.7400    -2.2080    -0.6030 ca         1 VC4      -0.318000
      4 C04         -2.6890    -2.6830     0.1900 ca         1 VC4       0.214100
      5 O05         -2.6370    -4.0160     0.4800 oh         1 VC4      -0.506100
      6 C06         -1.7040    -1.7980     0.6770 ca         1 VC4       0.029000
      7 Cl7         -0.3790    -2.4440     1.6640 cl         1 VC4      -0.178000
      8 C08         -1.7770    -0.4160     0.3670 ca         1 VC4       0.054700
      9 C09         -0.7060     0.5610     0.8730 c3         1 VC4      -0.040100
     10 C10          0.4500     0.7360    -0.1360 c3         1 VC4      -0.027100
     11 C11          1.4670     1.7750     0.3350 ca         1 VC4      -0.116300
     12 C12          2.6650     1.4360     1.0220 ca         1 VC4       0.360300
     13 C13          3.0570    -0.0090     1.3370 c3         1 VC4      -0.085400
     14 C14          3.5700    -0.7750     0.1170 ca         1 VC4      -0.077300
     15 C15          3.0920    -2.0720    -0.1600 ca         1 VC4      -0.104500
     16 C16          3.5580    -2.7780    -1.2820 ca         1 VC4      -0.112000
     17 C17          4.5100    -2.1950    -2.1340 ca         1 VC4      -0.112000
     18 C18          4.9990    -0.9070    -1.8600 ca         1 VC4      -0.112000
     19 C19          4.5330    -0.2010    -0.7380 ca         1 VC4      -0.104500
     20 N20          3.5460     2.3730     1.4540 nb         1 VC4      -0.681000
     21 C21          3.2730     3.6740     1.2120 ca         1 VC4       0.337900
     22 C22          2.1180     4.0960     0.5380 ca         1 VC4      -0.167000
     23 C23          1.1980     3.1360     0.0930 ca         1 VC4      -0.072000
     24 C24         -2.8440     0.0480    -0.4440 ca         1 VC4      -0.200600
     25 C25         -2.9570     1.4890    -0.8170 c          1 VC4       0.626700
     26 O26         -3.5400     2.2450     0.1670 os         1 VC4      -0.423100
     27 C27         -3.6890     3.6570    -0.0640 c3         1 VC4       0.150900
     28 O28         -2.5500     1.9370    -1.8810 o          1 VC4      -0.488000
     29 H1          -5.4040    -1.1790    -1.9170 ho         1 VC4       0.473000
     30 H2          -4.4960    -2.8950    -0.9740 ha         1 VC4       0.122000
     31 H3          -3.4040    -4.4500     0.0520 ho         1 VC4       0.473000
     32 H4          -1.1450     1.5420     1.0840 hc         1 VC4       0.062200
     33 H5          -0.2970     0.2390     1.8360 hc         1 VC4       0.062200
     34 H6           0.9170    -0.2370    -0.3230 hc         1 VC4       0.066700
     35 H7           0.0340     1.0440    -1.1030 hc         1 VC4       0.066700
     36 H8           3.8290    -0.0280     2.1150 hc         1 VC4       0.065200
     37 H9           2.1980    -0.5250     1.7810 hc         1 VC4       0.065200
     38 H10          2.3580    -2.5360     0.4940 ha         1 VC4       0.118500
     39 H11          3.1810    -3.7770    -1.4900 ha         1 VC4       0.110500
     40 H12          4.8710    -2.7410    -3.0030 ha         1 VC4       0.110000
     41 H13          5.7400    -0.4560    -2.5170 ha         1 VC4       0.110500
     42 H14          4.9230     0.7940    -0.5350 ha         1 VC4       0.118500
     43 H15          4.0030     4.3990     1.5710 h4         1 VC4       0.016100
     44 H16          1.9430     5.1550     0.3700 ha         1 VC4       0.123000
     45 H17          0.2920     3.4440    -0.4280 ha         1 VC4       0.130000
     46 H18         -4.1680     4.1360     0.7980 h1         1 VC4       0.048367
     47 H19         -2.7120     4.1330    -0.2200 h1         1 VC4       0.048367
     48 H20         -4.3130     3.8440    -0.9480 h1         1 VC4       0.048367
@<TRIPOS>BOND
     1     1     2 1   
     2     1    29 1   
     3     2     3 ar  
     4     2    24 ar  
     5     3     4 ar  
     6     3    30 1   
     7     4     5 1   
     8     4     6 ar  
     9     5    31 1   
    10     6     7 1   
    11     6     8 ar  
    12     8     9 1   
    13     8    24 ar  
    14     9    10 1   
    15     9    32 1   
    16     9    33 1   
    17    10    11 1   
    18    10    34 1   
    19    10    35 1   
    20    11    12 ar  
    21    11    23 ar  
    22    12    13 1   
    23    12    20 ar  
    24    13    14 1   
    25    13    36 1   
    26    13    37 1   
    27    14    15 ar  
    28    14    19 ar  
    29    15    16 ar  
    30    15    38 1   
    31    16    17 ar  
    32    16    39 1   
    33    17    18 ar  
    34    17    40 1   
    35    18    19 ar  
    36    18    41 1   
    37    19    42 1   
    38    20    21 ar  
    39    21    22 ar  
    40    21    43 1   
    41    22    23 ar  
    42    22    44 1   
    43    23    45 1   
    44    24    25 1   
    45    25    26 1   
    46    25    28 2   
    47    26    27 1   
    48    27    46 1   
    49    27    47 1   
    50    27    48 1   
@<TRIPOS>SUBSTRUCTURE
     1 VC4         1 TEMP              0 ****  ****    0 ROOT
