@<TRIPOS>MOLECULE
VC4
   48    50     1     0     0
SMALL
bcc


@<TRIPOS>ATOM
      1 O01         -4.9590    -0.1520    -1.3210 oh         1 VC4      -0.478100
      2 C02         -3.9220    -0.6860    -0.6620 ca         1 VC4       0.229100
      3 C03         -3.8250    -2.0500    -0.4280 ca         1 VC4      -0.336000
      4 C04         -2.7220    -2.5610     0.2400 ca         1 VC4       0.214100
      5 O05         -2.5760    -3.8630     0.5000 oh         1 VC4      -0.467100
      6 C06         -1.7150    -1.6910     0.6640 ca         1 VC4      -0.062600
      7 CL7         -0.3720    -2.3870     1.5110 cl         1 VC4      -0.086400
      8 C08         -1.7860    -0.3230     0.4270 ca         1 VC4       0.054700
      9 C09         -0.6770     0.5900     0.8690 c3         1 VC4      -0.040100
     10 C10          0.4650     0.6460    -0.1590 c3         1 VC4      -0.027100
     11 C11          1.5100     1.6460     0.2430 ca         1 VC4      -0.181600
     12 C12          2.6790     1.3020     0.9320 ca         1 VC4       0.425600
     13 C13          3.0260    -0.1310     1.2530 c3         1 VC4      -0.085400
     14 C14          3.6670    -0.8330     0.0770 ca         1 VC4      -0.077300
     15 C15          3.1070    -1.9820    -0.4720 ca         1 VC4      -0.122500
     16 C16          3.7050    -2.6200    -1.5530 ca         1 VC4      -0.130000
     17 C17          4.8750    -2.1150    -2.1000 ca         1 VC4      -0.130000
     18 C18          5.4440    -0.9690    -1.5570 ca         1 VC4      -0.130000
     19 C19          4.8450    -0.3350    -0.4790 ca         1 VC4      -0.122500
     20 N20          3.5750     2.2120     1.3120 nb         1 VC4      -0.681000
     21 C21          3.3620     3.4900     1.0300 ca         1 VC4       0.403200
     22 C22          2.2390     3.9370     0.3550 ca         1 VC4      -0.250300
     23 C23          1.3040     2.9930    -0.0360 ca         1 VC4      -0.090000
     24 C24         -2.9080     0.1780    -0.2420 ca         1 VC4      -0.200600
     25 C25         -3.0240     1.6300    -0.5600 c          1 VC4       0.675700
     26 O26         -4.0580     2.1840     0.0460 os         1 VC4      -0.399900
     27 C27         -4.3150     3.5650    -0.2210 c3         1 VC4       0.127700
     28 O28         -2.2650     2.2320    -1.2790 o          1 VC4      -0.537000
     29 H1          -5.5900    -0.8350    -1.5780 ho         1 VC4       0.434000
     30 H2          -4.6080    -2.7190    -0.7700 ha         1 VC4       0.140000
     31 H3          -3.3230    -4.3640     0.1510 ho         1 VC4       0.434000
     32 H4          -1.0580     1.5980     1.0370 hc         1 VC4       0.062200
     33 H5          -0.2850     0.2600     1.8330 hc         1 VC4       0.062200
     34 H6           0.8940    -0.3480    -0.2860 hc         1 VC4       0.066700
     35 H7           0.0540     0.9280    -1.1290 hc         1 VC4       0.066700
     36 H8           3.7210    -0.1250     2.0950 hc         1 VC4       0.065200
     37 H9           2.1450    -0.6860     1.5800 hc         1 VC4       0.065200
     38 H10          2.1950    -2.3900    -0.0520 ha         1 VC4       0.136500
     39 H11          3.2530    -3.5130    -1.9650 ha         1 VC4       0.128500
     40 H12          5.3430    -2.6100    -2.9410 ha         1 VC4       0.128000
     41 H13          6.3600    -0.5690    -1.9740 ha         1 VC4       0.128500
     42 H14          5.3000     0.5560    -0.0620 ha         1 VC4       0.136500
     43 H15          4.1220     4.1910     1.3600 h4         1 VC4       0.016100
     44 H16          2.1010     4.9880     0.1440 ha         1 VC4       0.141000
     45 H17          0.4080     3.2980    -0.5640 ha         1 VC4       0.148000
     46 H18         -5.1890     3.8240     0.3680 h1         1 VC4       0.048367
     47 H19         -3.4760     4.1910     0.0800 h1         1 VC4       0.048367
     48 H20         -4.5270     3.7310    -1.2770 h1         1 VC4       0.048367
@<TRIPOS>BOND
     1     1     2 1   
     2     1    29 1   
     3     2     3 ar  
     4     2    24 ar  
     5     3     4 ar  
     6     3    30 1   
     7     4     5 1   
     8     4     6 ar  
     9     5    31 1   
    10     6     7 1   
    11     6     8 ar  
    12     8     9 1   
    13     8    24 ar  
    14     9    10 1   
    15     9    32 1   
    16     9    33 1   
    17    10    11 1   
    18    10    34 1   
    19    10    35 1   
    20    11    12 ar  
    21    11    23 ar  
    22    12    13 1   
    23    12    20 ar  
    24    13    14 1   
    25    13    36 1   
    26    13    37 1   
    27    14    15 ar  
    28    14    19 ar  
    29    15    16 ar  
    30    15    38 1   
    31    16    17 ar  
    32    16    39 1   
    33    17    18 ar  
    34    17    40 1   
    35    18    19 ar  
    36    18    41 1   
    37    19    42 1   
    38    20    21 ar  
    39    21    22 ar  
    40    21    43 1   
    41    22    23 ar  
    42    22    44 1   
    43    23    45 1   
    44    24    25 1   
    45    25    26 1   
    46    25    28 2   
    47    26    27 1   
    48    27    46 1   
    49    27    47 1   
    50    27    48 1   
@<TRIPOS>SUBSTRUCTURE
     1 VC4         1 TEMP              0 ****  ****    0 ROOT
