@<TRIPOS>MOLECULE
VC5
   49    51     1     0     0
SMALL
No Charge or Current Charge


@<TRIPOS>ATOM
      1 O01          4.7410     0.8720     1.3380 oh         1 VC5      -0.514100
      2 C02          3.5820     1.2550     0.7320 ca         1 VC5       0.226100
      3 C03          3.5200     2.5100     0.1200 ca         1 VC5      -0.260000
      4 C04          2.3470     2.9160    -0.5190 ca         1 VC5       0.221100
      5 O05          2.3090     4.1430    -1.1100 oh         1 VC5      -0.522100
      6 C06          1.2210     2.0710    -0.5510 ca         1 VC5      -0.033000
      7 Cl7         -0.2400     2.6400    -1.3750 cl         1 VC5      -0.205000
      8 C08          1.2700     0.7960     0.0680 ca         1 VC5       0.060700
      9 C09          0.0400    -0.1250     0.0490 c3         1 VC5      -0.037100
     10 C10         -0.1200    -0.8840    -1.2890 c3         1 VC5      -0.028100
     11 C11         -1.1120    -2.0490    -1.2050 ca         1 VC5      -0.082300
     12 C12         -2.5120    -1.8990    -1.4070 ca         1 VC5      -0.065300
     13 C13         -3.1730    -0.5510    -1.7180 c3         1 VC5       0.010200
     14 C14         -3.4390     0.3150    -0.4860 ca         1 VC5      -0.081300
     15 C15         -3.6470    -0.2550     0.7890 ca         1 VC5      -0.105500
     16 C16         -3.8800     0.5660     1.9060 ca         1 VC5      -0.111000
     17 C17         -3.9130     1.9620     1.7600 ca         1 VC5      -0.111000
     18 C18         -3.7190     2.5370     0.4930 ca         1 VC5      -0.111000
     19 C19         -3.4870     1.7160    -0.6240 ca         1 VC5      -0.105500
     20 C20         -3.3460    -3.0350    -1.3150 ca         1 VC5      -0.105000
     21 C21         -2.8140    -4.3000    -1.0240 ca         1 VC5      -0.108000
     22 C22         -1.4360    -4.4470    -0.8230 ca         1 VC5      -0.114000
     23 C23         -0.5930    -3.3290    -0.9150 ca         1 VC5      -0.107000
     24 C24          2.4710     0.3950     0.7100 ca         1 VC5      -0.199600
     25 C25          2.5880    -0.9380     1.3760 c          1 VC5       0.622700
     26 O26          2.6870    -1.9710     0.4800 os         1 VC5      -0.438100
     27 C27          2.8090    -3.3060     1.0020 c3         1 VC5       0.149900
     28 O28          2.5770    -1.0780     2.5910 o          1 VC5      -0.467000
     29 H1           5.3910     1.6000     1.2480 ho         1 VC5       0.476000
     30 H2           4.3780     3.1770     0.1320 ha         1 VC5       0.139000
     31 H3           1.4150     4.2500    -1.5010 ho         1 VC5       0.485000
     32 H4           0.0800    -0.8550     0.8650 hc         1 VC5       0.062200
     33 H5          -0.8640     0.4570     0.2500 hc         1 VC5       0.062200
     34 H6          -0.3910    -0.1830    -2.0840 hc         1 VC5       0.057700
     35 H7           0.8650    -1.2700    -1.5810 hc         1 VC5       0.057700
     36 H8          -2.5710     0.0050    -2.4460 hc         1 VC5       0.056700
     37 H9          -4.1270    -0.7210    -2.2320 hc         1 VC5       0.056700
     38 H10         -3.6270    -1.3330     0.9250 ha         1 VC5       0.113000
     39 H11         -4.0350     0.1190     2.8860 ha         1 VC5       0.112000
     40 H12         -4.0920     2.5970     2.6250 ha         1 VC5       0.112000
     41 H13         -3.7470     3.6180     0.3770 ha         1 VC5       0.112000
     42 H14         -3.3370     2.1730    -1.5990 ha         1 VC5       0.113000
     43 H15         -4.4190    -2.9350    -1.4630 ha         1 VC5       0.121000
     44 H16         -3.4700    -5.1640    -0.9530 ha         1 VC5       0.112000
     45 H17         -1.0190    -5.4260    -0.5990 ha         1 VC5       0.112000
     46 H18          0.4740    -3.4600    -0.7610 ha         1 VC5       0.110000
     47 H19          1.9320    -3.5700     1.6070 h1         1 VC5       0.048700
     48 H20          2.8870    -4.0300     0.1810 h1         1 VC5       0.048700
     49 H21          3.7060    -3.4020     1.6270 h1         1 VC5       0.048700
@<TRIPOS>BOND
     1     1     2 1   
     2     1    29 1   
     3     2     3 ar  
     4     2    24 ar  
     5     3     4 ar  
     6     3    30 1   
     7     4     5 1   
     8     4     6 ar  
     9     5    31 1   
    10     6     7 1   
    11     6     8 ar  
    12     8     9 1   
    13     8    24 ar  
    14     9    10 1   
    15     9    32 1   
    16     9    33 1   
    17    10    11 1   
    18    10    34 1   
    19    10    35 1   
    20    11    12 ar  
    21    11    23 ar  
    22    12    13 1   
    23    12    20 ar  
    24    13    14 1   
    25    13    36 1   
    26    13    37 1   
    27    14    15 ar  
    28    14    19 ar  
    29    15    16 ar  
    30    15    38 1   
    31    16    17 ar  
    32    16    39 1   
    33    17    18 ar  
    34    17    40 1   
    35    18    19 ar  
    36    18    41 1   
    37    19    42 1   
    38    20    21 ar  
    39    20    43 1   
    40    21    22 ar  
    41    21    44 1   
    42    22    23 ar  
    43    22    45 1   
    44    23    46 1   
    45    24    25 1   
    46    25    26 1   
    47    25    28 2   
    48    26    27 1   
    49    27    47 1   
    50    27    48 1   
    51    27    49 1   
@<TRIPOS>SUBSTRUCTURE
     1 VC5         1 TEMP              0 ****  ****    0 ROOT
