@<TRIPOS>MOLECULE
VC5
   49    51     1     0     0
SMALL
abcg2


@<TRIPOS>ATOM
      1 O01          5.6870     0.1830     0.1140 oh         1 VC5      -0.514100
      2 C02          4.4870     0.7740     0.0220 ca         1 VC5       0.226100
      3 C03          4.3490     2.1050    -0.3310 ca         1 VC5      -0.260000
      4 C04          3.0850     2.6710    -0.4180 ca         1 VC5       0.221100
      5 O05          3.0080     3.9630    -0.7480 oh         1 VC5      -0.522100
      6 C06          1.9660     1.8770    -0.1560 ca         1 VC5      -0.033000
      7 CL7          0.4070     2.6450    -0.2420 cl         1 VC5      -0.205000
      8 C08          2.0800     0.5310     0.1790 ca         1 VC5       0.060700
      9 C09          0.8520    -0.3010     0.4360 c3         1 VC5      -0.037100
     10 C10          0.1860    -0.7690    -0.8680 c3         1 VC5      -0.028100
     11 C11         -0.9800    -1.6840    -0.6030 ca         1 VC5      -0.082300
     12 C12         -2.2700    -1.1990    -0.3310 ca         1 VC5      -0.065300
     13 C13         -2.5340     0.2940    -0.3390 c3         1 VC5       0.010200
     14 C14         -3.9600     0.6940    -0.0880 ca         1 VC5      -0.081300
     15 C15         -4.4160     0.9210     1.2080 ca         1 VC5      -0.105500
     16 C16         -5.7370     1.2770     1.4460 ca         1 VC5      -0.111000
     17 C17         -6.6240     1.4110     0.3850 ca         1 VC5      -0.111000
     18 C18         -6.1800     1.1880    -0.9120 ca         1 VC5      -0.111000
     19 C19         -4.8580     0.8320    -1.1440 ca         1 VC5      -0.105500
     20 C20         -3.2860    -2.1120    -0.0640 ca         1 VC5      -0.105000
     21 C21         -3.0490    -3.4810    -0.0570 ca         1 VC5      -0.108000
     22 C22         -1.7770    -3.9600    -0.3260 ca         1 VC5      -0.114000
     23 C23         -0.7580    -3.0580    -0.5970 ca         1 VC5      -0.107000
     24 C24          3.3600    -0.0190     0.2660 ca         1 VC5      -0.199600
     25 C25          3.5850    -1.4360     0.6690 c          1 VC5       0.622700
     26 O26          3.1040    -2.2900    -0.2210 os         1 VC5      -0.438100
     27 C27          3.2250    -3.6850     0.0700 c3         1 VC5       0.149900
     28 O28          4.1520    -1.7680     1.6790 o          1 VC5      -0.467000
     29 H1           6.3930     0.8090    -0.0860 ho         1 VC5       0.476000
     30 H2           5.2190     2.7180    -0.5380 ha         1 VC5       0.139000
     31 H3           2.0890     4.2560    -0.8100 ho         1 VC5       0.485000
     32 H4           1.1030    -1.1720     1.0420 hc         1 VC5       0.062200
     33 H5           0.1410     0.2720     1.0350 hc         1 VC5       0.062200
     34 H6          -0.1220     0.0980    -1.4550 hc         1 VC5       0.057700
     35 H7           0.9270    -1.3000    -1.4670 hc         1 VC5       0.057700
     36 H8          -1.9000     0.7720     0.4120 hc         1 VC5       0.056700
     37 H9          -2.2120     0.7080    -1.2990 hc         1 VC5       0.056700
     38 H10         -3.7290     0.8200     2.0400 ha         1 VC5       0.113000
     39 H11         -6.0730     1.4520     2.4600 ha         1 VC5       0.112000
     40 H12         -7.6530     1.6900     0.5690 ha         1 VC5       0.112000
     41 H13         -6.8620     1.2950    -1.7450 ha         1 VC5       0.112000
     42 H14         -4.5190     0.6590    -2.1580 ha         1 VC5       0.113000
     43 H15         -4.2870    -1.7560     0.1450 ha         1 VC5       0.121000
     44 H16         -3.8600    -4.1660     0.1540 ha         1 VC5       0.112000
     45 H17         -1.5780    -5.0240    -0.3290 ha         1 VC5       0.112000
     46 H18          0.2360    -3.4300    -0.8180 ha         1 VC5       0.110000
     47 H19          2.7140    -3.9450     0.9970 h1         1 VC5       0.048700
     48 H20          2.7570    -4.2030    -0.7610 h1         1 VC5       0.048700
     49 H21          4.2710    -3.9840     0.1390 h1         1 VC5       0.048700
@<TRIPOS>BOND
     1     1     2 1   
     2     1    29 1   
     3     2     3 ar  
     4     2    24 ar  
     5     3     4 ar  
     6     3    30 1   
     7     4     5 1   
     8     4     6 ar  
     9     5    31 1   
    10     6     7 1   
    11     6     8 ar  
    12     8     9 1   
    13     8    24 ar  
    14     9    10 1   
    15     9    32 1   
    16     9    33 1   
    17    10    11 1   
    18    10    34 1   
    19    10    35 1   
    20    11    12 ar  
    21    11    23 ar  
    22    12    13 1   
    23    12    20 ar  
    24    13    14 1   
    25    13    36 1   
    26    13    37 1   
    27    14    15 ar  
    28    14    19 ar  
    29    15    16 ar  
    30    15    38 1   
    31    16    17 ar  
    32    16    39 1   
    33    17    18 ar  
    34    17    40 1   
    35    18    19 ar  
    36    18    41 1   
    37    19    42 1   
    38    20    21 ar  
    39    20    43 1   
    40    21    22 ar  
    41    21    44 1   
    42    22    23 ar  
    43    22    45 1   
    44    23    46 1   
    45    24    25 1   
    46    25    26 1   
    47    25    28 2   
    48    26    27 1   
    49    27    47 1   
    50    27    48 1   
    51    27    49 1   
@<TRIPOS>SUBSTRUCTURE
     1 VC5         1 TEMP              0 ****  ****    0 ROOT
