@<TRIPOS>MOLECULE
VC6
   42    43     1     0     0
SMALL
No Charge or Current Charge


@<TRIPOS>ATOM
      1 C4          -6.1340    -2.8570    -0.2710 cc         1 VC6       0.739500
      2 N4          -6.7260    -4.0330    -0.2740 nv         1 VC6      -1.065200
      3 C5          -6.8900    -1.7200     0.0600 cc         1 VC6      -0.510600
      4 C6          -6.2620    -0.4990     0.0460 cd         1 VC6      -0.031400
      5 N3          -4.8900    -2.8520    -0.5900 nd         1 VC6      -0.792100
      6 C2          -4.2030    -1.6330    -0.6140 c          1 VC6       0.718400
      7 O2          -3.0150    -1.6650    -0.8890 o          1 VC6      -0.538000
      8 N1          -4.9140    -0.4450    -0.2980 n          1 VC6      -0.315000
      9 C1          -4.2590     0.8870    -0.3650 c5         1 VC6       0.341700
     10 C9          -3.5140     1.1260     0.9750 c5         1 VC6      -0.162400
     11 C3          -2.4760     2.1730     0.5160 c5         1 VC6       0.120300
     12 O3          -3.0750     3.4680     0.3720 oh         1 VC6      -0.689000
     13 O4          -3.2890     1.0340    -1.4240 os         1 VC6      -0.378000
     14 C7          -2.0480     1.5160    -0.8390 c5         1 VC6       0.170300
     15 C8          -1.3100     2.4620    -1.8300 c3         1 VC6       0.236600
     16 O5          -0.3110     1.7340    -2.5650 os         1 VC6      -0.549400
     17 PA           1.2300     1.7400    -2.0880 p5         1 VC6       1.461800
     18 O1A          1.6620     3.1360    -1.7830 o          1 VC6      -0.873000
     19 O2A          2.0570     1.1060    -3.1580 o          1 VC6      -0.873000
     20 O3A          1.0500     0.8470    -0.8070 os         1 VC6      -0.689800
     21 PB           2.3920     0.2110    -0.2430 p5         1 VC6       1.490400
     22 O1B          2.6370    -1.0980    -0.9350 o          1 VC6      -0.832000
     23 O2B          3.5520     1.1580    -0.3560 o          1 VC6      -0.832000
     24 C3B          1.8150     0.0920     1.5360 c3         1 VC6      -0.089000
     25 Cl1          0.0180    -0.3340     1.8210 cl         1 VC6      -0.399000
     26 F4B          2.0370     1.2760     2.1960 f          1 VC6      -0.264000
     27 PG           3.0070    -1.2270     2.1050 p5         1 VC6       1.293500
     28 O2G          4.4220    -0.9870     1.6920 o          1 VC6      -0.904167
     29 O1G          2.9680    -1.2400     3.6020 o          1 VC6      -0.904167
     30 O3G          2.5600    -2.5860     1.6670 o          1 VC6      -0.904167
     31 H1          -7.7270    -4.0130    -0.4120 hn         1 VC6       0.474500
     32 H2          -6.2180    -4.7480    -0.7770 hn         1 VC6       0.474500
     33 H3          -7.9380    -1.8210     0.3200 ha         1 VC6       0.164000
     34 H4          -6.7260     0.4570     0.2800 h4         1 VC6       0.175000
     35 H5          -5.0490     1.6350    -0.5040 h2         1 VC6       0.034700
     36 H6          -4.1770     1.4890     1.7680 hc         1 VC6       0.044200
     37 H7          -3.0260     0.2160     1.3440 hc         1 VC6       0.044200
     38 H8          -1.6280     2.2290     1.2120 h1         1 VC6       0.034700
     39 H9          -3.2640     3.7990     1.2790 ho         1 VC6       0.458000
     40 H10         -1.4160     0.6430    -0.6330 h1         1 VC6       0.086700
     41 H11         -2.0380     2.9120    -2.5170 h1         1 VC6       0.014700
     42 H12         -0.8510     3.2810    -1.2610 h1         1 VC6       0.014700
@<TRIPOS>BOND
     1     1     2 1   
     2     1     3 1   
     3     1     5 2   
     4     2    31 1   
     5     2    32 1   
     6     3     4 2   
     7     3    33 1   
     8     4     8 1   
     9     4    34 1   
    10     5     6 1   
    11     6     7 2   
    12     6     8 1   
    13     8     9 1   
    14     9    10 1   
    15     9    13 1   
    16     9    35 1   
    17    10    11 1   
    18    10    36 1   
    19    10    37 1   
    20    11    12 1   
    21    11    14 1   
    22    11    38 1   
    23    12    39 1   
    24    13    14 1   
    25    14    15 1   
    26    14    40 1   
    27    15    16 1   
    28    15    41 1   
    29    15    42 1   
    30    16    17 1   
    31    17    18 1   
    32    17    19 1   
    33    17    20 1   
    34    20    21 1   
    35    21    22 1   
    36    21    23 1   
    37    21    24 1   
    38    24    25 1   
    39    24    26 1   
    40    24    27 1   
    41    27    28 1   
    42    27    29 1   
    43    27    30 1   
@<TRIPOS>SUBSTRUCTURE
     1 VC6         1 TEMP              0 ****  ****    0 ROOT
