@<TRIPOS>MOLECULE
VC6
   42    43     1     0     0
SMALL
abcg2


@<TRIPOS>ATOM
      1 C4          -5.8880    -3.1160    -0.3370 cc         1 VC6       0.739500
      2 N4          -6.2640    -4.3930    -0.2550 nv         1 VC6      -1.065200
      3 C5          -6.1740    -2.3700    -1.5200 cc         1 VC6      -0.510600
      4 C6          -5.7640    -1.0870    -1.5280 cd         1 VC6      -0.031400
      5 N3          -5.2580    -2.5830     0.6910 nd         1 VC6      -0.792100
      6 C2          -4.8540    -1.2950     0.6750 c          1 VC6       0.718400
      7 O2          -4.2630    -0.7860     1.6170 o          1 VC6      -0.538000
      8 N1          -5.1300    -0.5270    -0.4700 n          1 VC6      -0.315000
      9 C1          -4.7040     0.8680    -0.5650 c5         1 VC6       0.341700
     10 C9          -5.3030     1.8050     0.4850 c5         1 VC6      -0.162400
     11 C3          -4.1760     2.8070     0.7040 c5         1 VC6       0.120300
     12 O3          -4.1420     3.7960    -0.3000 oh         1 VC6      -0.689000
     13 O4          -3.3130     0.9770    -0.4710 os         1 VC6      -0.378000
     14 C7          -2.9580     1.9040     0.5520 c5         1 VC6       0.170300
     15 C8          -1.6730     2.6080     0.1870 c3         1 VC6       0.236600
     16 O5          -0.6290     1.6590     0.1850 os         1 VC6      -0.549400
     17 PA           0.8830     2.2130    -0.1950 p5         1 VC6       1.461800
     18 O1A          1.3300     3.1560     0.8800 o          1 VC6      -0.873000
     19 O2A          0.8950     2.6580    -1.6270 o          1 VC6      -0.873000
     20 O3A          1.5730     0.7480    -0.0250 os         1 VC6      -0.689800
     21 PB           3.0310     0.3250    -0.7080 p5         1 VC6       1.490400
     22 O1B          2.7580    -0.4520    -1.9590 o          1 VC6      -0.832000
     23 O2B          3.9060     1.5420    -0.7250 o          1 VC6      -0.832000
     24 C3B          3.6200    -0.8370     0.6060 c3         1 VC6      -0.089000
     25 CL1          2.2950    -2.0100     0.9950 cl         1 VC6      -0.399000
     26 F4B          3.7890    -0.0840     1.7610 f          1 VC6      -0.264000
     27 PG           5.2160    -1.8030     0.2660 p5         1 VC6       1.293500
     28 O2G          6.1650    -0.7110    -0.2220 o          1 VC6      -0.904167
     29 O1G          5.5680    -2.3770     1.6360 o          1 VC6      -0.904167
     30 O3G          4.8310    -2.8340    -0.7830 o          1 VC6      -0.904167
     31 H1          -6.6900    -4.8640    -1.0330 hn         1 VC6       0.474500
     32 H2          -6.0110    -4.9420     0.5480 hn         1 VC6       0.474500
     33 H3          -6.6790    -2.8030    -2.3700 ha         1 VC6       0.164000
     34 H4          -5.9250    -0.4460    -2.3840 h4         1 VC6       0.175000
     35 H5          -5.0160     1.1860    -1.5640 h2         1 VC6       0.034700
     36 H6          -6.2250     2.2690     0.1310 hc         1 VC6       0.044200
     37 H7          -5.5280     1.2840     1.4130 hc         1 VC6       0.044200
     38 H8          -4.2110     3.2510     1.7050 h1         1 VC6       0.034700
     39 H9          -4.9760     4.2760    -0.2800 ho         1 VC6       0.458000
     40 H10         -2.8130     1.3700     1.4980 h1         1 VC6       0.086700
     41 H11         -1.7650     3.0940    -0.7890 h1         1 VC6       0.014700
     42 H12         -1.4940     3.3940     0.9320 h1         1 VC6       0.014700
@<TRIPOS>BOND
     1     1     2 1   
     2     1     3 1   
     3     1     5 2   
     4     2    31 1   
     5     2    32 1   
     6     3     4 2   
     7     3    33 1   
     8     4     8 1   
     9     4    34 1   
    10     5     6 1   
    11     6     7 2   
    12     6     8 1   
    13     8     9 1   
    14     9    10 1   
    15     9    13 1   
    16     9    35 1   
    17    10    11 1   
    18    10    36 1   
    19    10    37 1   
    20    11    12 1   
    21    11    14 1   
    22    11    38 1   
    23    12    39 1   
    24    13    14 1   
    25    14    15 1   
    26    14    40 1   
    27    15    16 1   
    28    15    41 1   
    29    15    42 1   
    30    16    17 1   
    31    17    18 1   
    32    17    19 1   
    33    17    20 1   
    34    20    21 1   
    35    21    22 1   
    36    21    23 1   
    37    21    24 1   
    38    24    25 1   
    39    24    26 1   
    40    24    27 1   
    41    27    28 1   
    42    27    29 1   
    43    27    30 1   
@<TRIPOS>SUBSTRUCTURE
     1 VC6         1 TEMP              0 ****  ****    0 ROOT
