@<TRIPOS>MOLECULE
VC8
   42    43     1     0     0
SMALL
abcg2


@<TRIPOS>ATOM
      1 C4          -6.0980    -3.0990    -0.4850 cc         1 VC8       0.748500
      2 N4          -6.4860    -4.3740    -0.4740 nv         1 VC8      -1.065200
      3 C5          -6.4990    -2.2490    -1.5620 cc         1 VC8      -0.516600
      4 C6          -6.0690    -0.9740    -1.5040 cd         1 VC8      -0.016400
      5 N3          -5.3490    -2.6630     0.5080 nd         1 VC8      -0.785100
      6 C2          -4.9250    -1.3830     0.5580 c          1 VC8       0.715400
      7 O2          -4.2240    -0.9630     1.4680 o          1 VC8      -0.522000
      8 N1          -5.3120    -0.5140    -0.4780 n          1 VC8      -0.314000
      9 C1          -4.8830     0.8830    -0.4960 c5         1 VC8       0.340700
     10 C9          -5.3610     1.7250     0.6880 c5         1 VC8      -0.163400
     11 C3          -4.2140     2.7140     0.8570 c5         1 VC8       0.119300
     12 O3          -4.2820     3.7740    -0.0710 oh         1 VC8      -0.689000
     13 O4          -3.4880     0.9820    -0.5370 os         1 VC8      -0.381000
     14 C7          -3.0240     1.8290     0.5110 c5         1 VC8       0.168300
     15 C8          -1.7760     2.5590     0.0770 c3         1 VC8       0.238600
     16 O5          -0.7310     1.6190    -0.0390 os         1 VC8      -0.550400
     17 PA           0.7610     2.1940    -0.4650 p5         1 VC8       1.465800
     18 O1A          1.2140     3.1650     0.5810 o          1 VC8      -0.873000
     19 O2A          0.7320     2.6140    -1.9050 o          1 VC8      -0.873000
     20 O3A          1.4720     0.7400    -0.2950 os         1 VC8      -0.692800
     21 PB           2.9470     0.3230    -0.9340 p5         1 VC8       1.504400
     22 O1B          2.6920    -0.5400    -2.1310 o          1 VC8      -0.837000
     23 O2B          3.7970     1.5510    -1.0450 o          1 VC8      -0.837000
     24 C3B          3.5490    -0.7350     0.4620 c3         1 VC8      -0.092000
     25 CL1          3.5620     0.2750     1.9520 cl         1 VC8      -0.357000
     26 CL2          2.3330    -2.0390     0.7300 cl         1 VC8      -0.357000
     27 PG           5.2690    -1.5410     0.2560 p5         1 VC8       1.301500
     28 O2G          6.1910    -0.3410     0.0880 o          1 VC8      -0.906833
     29 O1G          5.4600    -2.3200     1.5510 o          1 VC8      -0.906833
     30 O3G          5.1020    -2.4000    -0.9900 o          1 VC8      -0.906833
     31 H1          -7.0440    -4.7600    -1.2140 hn         1 VC8       0.477000
     32 H2          -6.1860    -4.9880     0.2640 hn         1 VC8       0.477000
     33 H3          -7.1000    -2.6010    -2.3860 ha         1 VC8       0.166000
     34 H4          -6.3140    -0.2590    -2.2770 h4         1 VC8       0.177000
     35 H5          -5.2930     1.2870    -1.4270 h2         1 VC8       0.033700
     36 H6          -6.3180     2.2040     0.4830 hc         1 VC8       0.045200
     37 H7          -5.4690     1.1250     1.5890 hc         1 VC8       0.045200
     38 H8          -4.1410     3.0850     1.8860 h1         1 VC8       0.038700
     39 H9          -5.0950     4.2620     0.0920 ho         1 VC8       0.458000
     40 H10         -2.7860     1.2260     1.3950 h1         1 VC8       0.091700
     41 H11         -1.9470     3.0810    -0.8710 h1         1 VC8       0.015200
     42 H12         -1.5440     3.3180     0.8340 h1         1 VC8       0.015200
@<TRIPOS>BOND
     1     1     2 1   
     2     1     3 1   
     3     1     5 2   
     4     2    31 1   
     5     2    32 1   
     6     3     4 2   
     7     3    33 1   
     8     4     8 1   
     9     4    34 1   
    10     5     6 1   
    11     6     7 2   
    12     6     8 1   
    13     8     9 1   
    14     9    10 1   
    15     9    13 1   
    16     9    35 1   
    17    10    11 1   
    18    10    36 1   
    19    10    37 1   
    20    11    12 1   
    21    11    14 1   
    22    11    38 1   
    23    12    39 1   
    24    13    14 1   
    25    14    15 1   
    26    14    40 1   
    27    15    16 1   
    28    15    41 1   
    29    15    42 1   
    30    16    17 1   
    31    17    18 1   
    32    17    19 1   
    33    17    20 1   
    34    20    21 1   
    35    21    22 1   
    36    21    23 1   
    37    21    24 1   
    38    24    25 1   
    39    24    26 1   
    40    24    27 1   
    41    27    28 1   
    42    27    29 1   
    43    27    30 1   
@<TRIPOS>SUBSTRUCTURE
     1 VC8         1 TEMP              0 ****  ****    0 ROOT
