@<TRIPOS>MOLECULE
VC8
   42    43     1     0     0
SMALL
No Charge or Current Charge


@<TRIPOS>ATOM
      1 C4          -6.2910    -2.7350    -0.1190 cc         1 VC8       0.748500
      2 N4          -6.9470    -3.8740    -0.0540 nv         1 VC8      -1.065200
      3 C5          -6.8690    -1.5900     0.4510 cc         1 VC8      -0.516600
      4 C6          -6.1790    -0.4070     0.3640 cd         1 VC8      -0.016400
      5 N3          -5.1580    -2.7720    -0.7220 nd         1 VC8      -0.785100
      6 C2          -4.4120    -1.5910    -0.8330 c          1 VC8       0.715400
      7 O2          -3.3290    -1.6640    -1.3870 o          1 VC8      -0.522000
      8 N1          -4.9470    -0.3960    -0.2840 n          1 VC8      -0.314000
      9 C1          -4.2360     0.9030    -0.4160 c5         1 VC8       0.340700
     10 C9          -3.2260     1.0200     0.7580 c5         1 VC8      -0.163400
     11 C3          -2.2420     2.0480     0.1560 c5         1 VC8       0.119300
     12 O3          -2.7950     3.3700     0.2040 oh         1 VC8      -0.689000
     13 O4          -3.4890     1.0700    -1.6390 os         1 VC8      -0.381000
     14 C7          -2.1310     1.4490    -1.2870 c5         1 VC8       0.168300
     15 C8          -1.5120     2.3610    -2.3900 c3         1 VC8       0.238600
     16 O5          -0.1750     1.9520    -2.7330 os         1 VC8      -0.550400
     17 PA           1.0780     2.2150    -1.7490 p5         1 VC8       1.465800
     18 O1A          0.9020     3.5110    -1.0310 o          1 VC8      -0.873000
     19 O2A          2.3270     2.1830    -2.5650 o          1 VC8      -0.873000
     20 O3A          0.8760     0.9570    -0.8270 os         1 VC8      -0.692800
     21 PB           2.1660     0.5340    -0.0030 p5         1 VC8       1.504400
     22 O1B          3.0560    -0.3050    -0.8730 o          1 VC8      -0.837000
     23 O2B          2.8630     1.7300     0.5770 o          1 VC8      -0.837000
     24 C3B          1.2350    -0.3960     1.3260 c3         1 VC8      -0.092000
     25 Cl1          0.4710     0.7030     2.6210 cl         1 VC8      -0.357000
     26 Cl2         -0.1700    -1.4560     0.7130 cl         1 VC8      -0.357000
     27 PG           2.6680    -1.4150     1.9480 p5         1 VC8       1.301500
     28 O2G          3.9160    -0.6300     2.1900 o          1 VC8      -0.906833
     29 O1G          2.2460    -2.0010     3.2600 o          1 VC8      -0.906833
     30 O3G          2.9480    -2.5760     1.0490 o          1 VC8      -0.906833
     31 H1          -7.9500    -3.7880     0.0470 hn         1 VC8       0.477000
     32 H2          -6.6220    -4.5740    -0.7060 hn         1 VC8       0.477000
     33 H3          -7.8320    -1.6550     0.9430 ha         1 VC8       0.166000
     34 H4          -6.5090     0.5520     0.7610 h4         1 VC8       0.177000
     35 H5          -4.9920     1.6960    -0.3530 h2         1 VC8       0.033700
     36 H6          -3.6960     1.3610     1.6870 hc         1 VC8       0.045200
     37 H7          -2.7290     0.0670     0.9710 hc         1 VC8       0.045200
     38 H8          -1.2710     2.0270     0.6690 h1         1 VC8       0.038700
     39 H9          -2.6990     3.6870     1.1300 ho         1 VC8       0.458000
     40 H10         -1.5510     0.5170    -1.2530 h1         1 VC8       0.091700
     41 H11         -2.1410     2.2940    -3.2870 h1         1 VC8       0.015200
     42 H12         -1.5290     3.4100    -2.0710 h1         1 VC8       0.015200
@<TRIPOS>BOND
     1     1     2 1   
     2     1     3 1   
     3     1     5 2   
     4     2    31 1   
     5     2    32 1   
     6     3     4 2   
     7     3    33 1   
     8     4     8 1   
     9     4    34 1   
    10     5     6 1   
    11     6     7 2   
    12     6     8 1   
    13     8     9 1   
    14     9    10 1   
    15     9    13 1   
    16     9    35 1   
    17    10    11 1   
    18    10    36 1   
    19    10    37 1   
    20    11    12 1   
    21    11    14 1   
    22    11    38 1   
    23    12    39 1   
    24    13    14 1   
    25    14    15 1   
    26    14    40 1   
    27    15    16 1   
    28    15    41 1   
    29    15    42 1   
    30    16    17 1   
    31    17    18 1   
    32    17    19 1   
    33    17    20 1   
    34    20    21 1   
    35    21    22 1   
    36    21    23 1   
    37    21    24 1   
    38    24    25 1   
    39    24    26 1   
    40    24    27 1   
    41    27    28 1   
    42    27    29 1   
    43    27    30 1   
@<TRIPOS>SUBSTRUCTURE
     1 VC8         1 TEMP              0 ****  ****    0 ROOT
