@<TRIPOS>MOLECULE
VC9
   42    43     1     0     0
SMALL
bcc


@<TRIPOS>ATOM
      1 C4          -6.3620    -2.8830     0.2760 cc         1 VC9       0.765500
      2 N4          -6.7290    -4.0370     0.8310 nv         1 VC9      -0.949800
      3 C5          -6.2810    -2.7790    -1.1470 cc         1 VC9      -0.464600
      4 C6          -5.9010    -1.5820    -1.6340 cd         1 VC9       0.062600
      5 N3          -6.0840    -1.8680     1.0690 nd         1 VC9      -0.780100
      6 C2          -5.7100    -0.6710     0.5690 c          1 VC9       0.861900
      7 O2          -5.4500     0.2840     1.2860 o          1 VC9      -0.601500
      8 N1          -5.6260    -0.5300    -0.8260 n          1 VC9      -0.375000
      9 C1          -5.1870     0.7250    -1.4270 c5         1 VC9       0.317500
     10 C9          -5.9920     1.9720    -1.0520 c5         1 VC9      -0.148400
     11 C3          -5.0210     2.8430    -0.2550 c5         1 VC9       0.096100
     12 O3          -5.0840     4.2180    -0.5480 oh         1 VC9      -0.583800
     13 O4          -3.8510     0.9640    -1.0840 os         1 VC9      -0.335600
     14 C7          -3.6540     2.3090    -0.6870 c5         1 VC9       0.145100
     15 C8          -2.6310     2.3760     0.4200 c3         1 VC9       0.214400
     16 O5          -1.3860     1.9140    -0.0540 os         1 VC9      -0.528200
     17 PA          -0.0600     2.2290     0.8860 p5         1 VC9       1.459800
     18 O1A         -0.3860     1.8730     2.3020 o          1 VC9      -0.869500
     19 O2A          0.4500     3.6000     0.5570 o          1 VC9      -0.869500
     20 O3A          0.8550     1.0940     0.1570 os         1 VC9      -0.693800
     21 PB           2.5050     0.9930     0.3030 p5         1 VC9       1.354600
     22 O1B          3.1040     1.5430    -0.9540 o          1 VC9      -0.842500
     23 O2B          2.9080     1.5260     1.6430 o          1 VC9      -0.842500
     24 C3B          2.6870    -0.8550     0.2980 c3         1 VC9       0.011400
     25 BR1          1.5880    -1.5880     1.7440 br         1 VC9      -0.287400
     26 BR2          1.9430    -1.5330    -1.3890 br         1 VC9      -0.287400
     27 PG           4.4700    -1.5410     0.4890 p5         1 VC9       1.156700
     28 O2G          4.8820    -1.0480     1.8680 o          1 VC9      -0.914833
     29 O1G          4.2950    -3.0490     0.3760 o          1 VC9      -0.914833
     30 O3G          5.2030    -0.8890    -0.6740 o          1 VC9      -0.914833
     31 H1          -6.9330    -4.8480     0.2740 hn         1 VC9       0.426300
     32 H2          -6.7610    -4.1300     1.8320 hn         1 VC9       0.426300
     33 H3          -6.5020    -3.6070    -1.8020 ha         1 VC9       0.124000
     34 H4          -5.8030    -1.4090    -2.6970 h4         1 VC9       0.133000
     35 H5          -5.2670     0.5510    -2.5040 h2         1 VC9       0.025700
     36 H6          -6.2700     2.4950    -1.9690 hc         1 VC9       0.035200
     37 H7          -6.9100     1.7400    -0.5160 hc         1 VC9       0.035200
     38 H8          -5.1630     2.6700     0.8150 h1         1 VC9       0.076700
     39 H9          -5.8380     4.5910    -0.0830 ho         1 VC9       0.373000
     40 H10         -3.3060     2.9010    -1.5470 h1         1 VC9       0.061700
     41 H11         -2.5790     3.4210     0.7550 h1         1 VC9       0.019200
     42 H12         -2.9800     1.7780     1.2680 h1         1 VC9       0.019200
@<TRIPOS>BOND
     1     1     2 1   
     2     1     3 1   
     3     1     5 2   
     4     2    31 1   
     5     2    32 1   
     6     3     4 2   
     7     3    33 1   
     8     4     8 1   
     9     4    34 1   
    10     5     6 1   
    11     6     7 2   
    12     6     8 1   
    13     8     9 1   
    14     9    10 1   
    15     9    13 1   
    16     9    35 1   
    17    10    11 1   
    18    10    36 1   
    19    10    37 1   
    20    11    12 1   
    21    11    14 1   
    22    11    38 1   
    23    12    39 1   
    24    13    14 1   
    25    14    15 1   
    26    14    40 1   
    27    15    16 1   
    28    15    41 1   
    29    15    42 1   
    30    16    17 1   
    31    17    18 1   
    32    17    19 1   
    33    17    20 1   
    34    20    21 1   
    35    21    22 1   
    36    21    23 1   
    37    21    24 1   
    38    24    25 1   
    39    24    26 1   
    40    24    27 1   
    41    27    28 1   
    42    27    29 1   
    43    27    30 1   
@<TRIPOS>SUBSTRUCTURE
     1 VC9         1 TEMP              0 ****  ****    0 ROOT
