@<TRIPOS>MOLECULE
VC9
   42    43     1     0     0
SMALL
No Charge or Current Charge


@<TRIPOS>ATOM
      1 C4          -6.0500    -2.8110     1.2440 cc         1 VC9       0.765500
      2 N4          -6.7600    -3.7550     1.8250 nv         1 VC9      -1.060200
      3 C5          -5.2520    -3.1500     0.1410 cc         1 VC9      -0.514600
      4 C6          -4.5060    -2.1570    -0.4450 cd         1 VC9       0.012600
      5 N3          -6.1440    -1.6390     1.7590 nd         1 VC9      -0.780100
      6 C2          -5.4070    -0.5920     1.1940 c          1 VC9       0.719400
      7 O2          -5.5440     0.5180     1.6810 o          1 VC9      -0.526000
      8 N1          -4.5780    -0.8700     0.0780 n          1 VC9      -0.308000
      9 C1          -3.7200     0.1840    -0.5180 c5         1 VC9       0.340700
     10 C9          -4.6070     1.0850    -1.4350 c5         1 VC9      -0.148400
     11 C3          -4.4260     2.4880    -0.7880 c5         1 VC9       0.119300
     12 O3          -4.5290     3.5360    -1.7590 oh         1 VC9      -0.706000
     13 O4          -3.1040     1.0470     0.4510 os         1 VC9      -0.382000
     14 C7          -3.0020     2.3400    -0.1730 c5         1 VC9       0.168300
     15 C8          -2.6280     3.4390     0.8650 c3         1 VC9       0.237600
     16 O5          -1.2080     3.6780     0.9130 os         1 VC9      -0.551400
     17 PA          -0.1500     2.5910     1.4650 p5         1 VC9       1.459800
     18 O1A         -0.7340     1.8350     2.6130 o          1 VC9      -0.869500
     19 O2A          1.0980     3.3160     1.8470 o          1 VC9      -0.869500
     20 O3A         -0.0170     1.7460     0.1440 os         1 VC9      -0.693800
     21 PB           1.2930     0.8550     0.0580 p5         1 VC9       1.512400
     22 O1B          2.4290     1.6880    -0.4560 o          1 VC9      -0.842500
     23 O2B          1.5940     0.1810     1.3650 o          1 VC9      -0.842500
     24 C3B          0.5940    -0.3790    -1.1560 c3         1 VC9      -0.139000
     25 Br1         -0.5470    -1.8320    -0.2640 br         1 VC9      -0.370000
     26 Br2         -0.5610     0.4330    -2.6490 br         1 VC9      -0.370000
     27 PG           2.1920    -1.0370    -1.8340 p5         1 VC9       1.314500
     28 O2G          3.1900    -1.3960    -0.7830 o          1 VC9      -0.914833
     29 O1G          1.8510    -2.2860    -2.5840 o          1 VC9      -0.914833
     30 O3G          2.7870    -0.0980    -2.8340 o          1 VC9      -0.914833
     31 H1          -6.4040    -4.6930     1.7080 hn         1 VC9       0.481500
     32 H2          -7.0780    -3.5120     2.7530 hn         1 VC9       0.481500
     33 H3          -5.2350    -4.1700    -0.2250 ha         1 VC9       0.174000
     34 H4          -3.8430    -2.2810    -1.2990 h4         1 VC9       0.183000
     35 H5          -2.9480    -0.3170    -1.1110 h2         1 VC9       0.025700
     36 H6          -4.2300     1.0570    -2.4630 hc         1 VC9       0.035200
     37 H7          -5.6590     0.7800    -1.4680 hc         1 VC9       0.035200
     38 H8          -5.1610     2.6360     0.0180 h1         1 VC9       0.076700
     39 H9          -5.4210     3.4620    -2.1690 ho         1 VC9       0.472000
     40 H10         -2.2450     2.3110    -0.9680 h1         1 VC9       0.061700
     41 H11         -3.1320     4.3700     0.5760 h1         1 VC9       0.019200
     42 H12         -3.0150     3.1590     1.8530 h1         1 VC9       0.019200
@<TRIPOS>BOND
     1     1     2 1   
     2     1     3 1   
     3     1     5 2   
     4     2    31 1   
     5     2    32 1   
     6     3     4 2   
     7     3    33 1   
     8     4     8 1   
     9     4    34 1   
    10     5     6 1   
    11     6     7 2   
    12     6     8 1   
    13     8     9 1   
    14     9    10 1   
    15     9    13 1   
    16     9    35 1   
    17    10    11 1   
    18    10    36 1   
    19    10    37 1   
    20    11    12 1   
    21    11    14 1   
    22    11    38 1   
    23    12    39 1   
    24    13    14 1   
    25    14    15 1   
    26    14    40 1   
    27    15    16 1   
    28    15    41 1   
    29    15    42 1   
    30    16    17 1   
    31    17    18 1   
    32    17    19 1   
    33    17    20 1   
    34    20    21 1   
    35    21    22 1   
    36    21    23 1   
    37    21    24 1   
    38    24    25 1   
    39    24    26 1   
    40    24    27 1   
    41    27    28 1   
    42    27    29 1   
    43    27    30 1   
@<TRIPOS>SUBSTRUCTURE
     1 VC9         1 TEMP              0 ****  ****    0 ROOT
