@<TRIPOS>MOLECULE
VCA
   53    52     1     0     0
SMALL
abcg2


@<TRIPOS>ATOM
      1 O2           9.5220    -1.9510     0.0870 o          1 VCA      -0.744000
      2 C1           8.5800    -1.3670    -0.4910 c          1 VCA       0.717000
      3 O1           8.6020    -0.9040    -1.6490 o          1 VCA      -0.744000
      4 C2           7.2820    -1.2200     0.3210 c3         1 VCA      -0.203400
      5 C3           6.1410    -0.4790    -0.3580 c3         1 VCA      -0.054400
      6 C4           4.9040    -0.3700     0.5250 c3         1 VCA      -0.079400
      7 C5           3.7510     0.3740    -0.1370 c3         1 VCA      -0.075400
      8 C6           2.5040     0.4490     0.7350 c3         1 VCA      -0.075400
      9 C7           1.3540     1.2060     0.0820 c3         1 VCA      -0.075400
     10 C8           0.0810     1.2010     0.9180 c3         1 VCA      -0.075400
     11 C9          -1.0540     2.0010     0.2910 c3         1 VCA      -0.072400
     12 C10         -2.3660     1.8790     1.0680 c3         1 VCA      -0.046200
     13 C11         -3.4370     2.7730     0.5220 c2         1 VCA      -0.208200
     14 C12         -4.4810     2.4160    -0.2260 c2         1 VCA      -0.223200
     15 C13         -4.8480     1.0380    -0.6800 c3         1 VCA      -0.042200
     16 C14         -6.1650     0.5530    -0.0710 c3         1 VCA      -0.071400
     17 C15         -6.6220    -0.7830    -0.6440 c3         1 VCA      -0.076400
     18 C16         -7.9210    -1.2920    -0.0310 c3         1 VCA      -0.074400
     19 C17         -8.3980    -2.6050    -0.6410 c3         1 VCA      -0.076400
     20 C18         -9.6940    -3.1150    -0.0250 c3         1 VCA      -0.088100
     21 H21          6.9440    -2.2230     0.6100 hc         1 VCA       0.014200
     22 H22          7.5260    -0.7260     1.2690 hc         1 VCA       0.014200
     23 H31          6.4700     0.5250    -0.6430 hc         1 VCA       0.037700
     24 H32          5.8730    -0.9830    -1.2910 hc         1 VCA       0.037700
     25 H41          4.5690    -1.3750     0.8090 hc         1 VCA       0.023700
     26 H42          5.1670     0.1330     1.4630 hc         1 VCA       0.023700
     27 H51          4.0760     1.3870    -0.3980 hc         1 VCA       0.033700
     28 H52          3.5000    -0.1160    -1.0850 hc         1 VCA       0.033700
     29 H61          2.1740    -0.5670     0.9800 hc         1 VCA       0.031700
     30 H62          2.7540     0.9230     1.6900 hc         1 VCA       0.031700
     31 H71          1.6640     2.2390    -0.1110 hc         1 VCA       0.035700
     32 H72          1.1410     0.7660    -0.8990 hc         1 VCA       0.035700
     33 H81         -0.2460     0.1660     1.0680 hc         1 VCA       0.034700
     34 H82          0.2940     1.5980     1.9160 hc         1 VCA       0.034700
     35 H91         -0.7630     3.0550     0.2230 hc         1 VCA       0.038700
     36 H92         -1.2190     1.6640    -0.7380 hc         1 VCA       0.038700
     37 H101        -2.6870     0.8350     1.0680 hc         1 VCA       0.042700
     38 H102        -2.1840     2.1450     2.1140 hc         1 VCA       0.042700
     39 H11         -3.3180     3.8290     0.7490 ha         1 VCA       0.163000
     40 H12         -5.1620     3.2000    -0.5450 ha         1 VCA       0.160000
     41 H131        -4.9520     1.0460    -1.7710 hc         1 VCA       0.045700
     42 H132        -4.0560     0.3200    -0.4550 hc         1 VCA       0.045700
     43 H141        -6.0490     0.4710     1.0140 hc         1 VCA       0.037700
     44 H142        -6.9440     1.3050    -0.2380 hc         1 VCA       0.037700
     45 H151        -6.7490    -0.6830    -1.7280 hc         1 VCA       0.037700
     46 H152        -5.8350    -1.5310    -0.5010 hc         1 VCA       0.037700
     47 H161        -7.7870    -1.4220     1.0490 hc         1 VCA       0.036200
     48 H162        -8.7020    -0.5330    -0.1500 hc         1 VCA       0.036200
     49 H171        -8.5360    -2.4710    -1.7190 hc         1 VCA       0.037200
     50 H172        -7.6150    -3.3620    -0.5300 hc         1 VCA       0.037200
     51 H181        -9.5750    -3.3110     1.0420 hc         1 VCA       0.030033
     52 H182       -10.4970    -2.3840    -0.1380 hc         1 VCA       0.030033
     53 H183       -10.0220    -4.0420    -0.4960 hc         1 VCA       0.030033
@<TRIPOS>BOND
     1     1     2 1   
     2     2     3 1   
     3     2     4 1   
     4     4     5 1   
     5     4    21 1   
     6     4    22 1   
     7     5     6 1   
     8     5    23 1   
     9     5    24 1   
    10     6     7 1   
    11     6    25 1   
    12     6    26 1   
    13     7     8 1   
    14     7    27 1   
    15     7    28 1   
    16     8     9 1   
    17     8    29 1   
    18     8    30 1   
    19     9    10 1   
    20     9    31 1   
    21     9    32 1   
    22    10    11 1   
    23    10    33 1   
    24    10    34 1   
    25    11    12 1   
    26    11    35 1   
    27    11    36 1   
    28    12    13 1   
    29    12    37 1   
    30    12    38 1   
    31    13    14 2   
    32    13    39 1   
    33    14    15 1   
    34    14    40 1   
    35    15    16 1   
    36    15    41 1   
    37    15    42 1   
    38    16    17 1   
    39    16    43 1   
    40    16    44 1   
    41    17    18 1   
    42    17    45 1   
    43    17    46 1   
    44    18    19 1   
    45    18    47 1   
    46    18    48 1   
    47    19    20 1   
    48    19    49 1   
    49    19    50 1   
    50    20    51 1   
    51    20    52 1   
    52    20    53 1   
@<TRIPOS>SUBSTRUCTURE
     1 VCA         1 TEMP              0 ****  ****    0 ROOT
