@<TRIPOS>MOLECULE
VCA
   53    52     1     0     0
SMALL
No Charge or Current Charge


@<TRIPOS>ATOM
      1 O2           9.0880    -0.7760    -0.2090 o          1 VCA      -0.744000
      2 C1           8.2380    -1.5910    -0.5360 c          1 VCA       0.717000
      3 O1           8.3420    -2.3210    -1.5100 o          1 VCA      -0.744000
      4 C2           6.9410    -1.6620     0.2910 c3         1 VCA      -0.203400
      5 C3           5.8910    -0.6760    -0.2770 c3         1 VCA      -0.054400
      6 C4           4.5580    -0.6900     0.5050 c3         1 VCA      -0.079400
      7 C5           3.5120     0.2940    -0.0640 c3         1 VCA      -0.075400
      8 C6           2.1800     0.2790     0.7180 c3         1 VCA      -0.075400
      9 C7           1.1340     1.2630     0.1490 c3         1 VCA      -0.075400
     10 C8          -0.1980     1.2480     0.9310 c3         1 VCA      -0.075400
     11 C9          -1.2440     2.2310     0.3610 c3         1 VCA      -0.072400
     12 C10         -2.5760     2.2160     1.1380 c3         1 VCA      -0.046200
     13 C11         -3.5900     3.1820     0.5530 c2         1 VCA      -0.208200
     14 C12         -4.5750     2.8880    -0.3140 c2         1 VCA      -0.223200
     15 C13         -4.8700     1.5340    -0.9310 c3         1 VCA      -0.042200
     16 C14         -5.9750     0.7750    -0.1670 c3         1 VCA      -0.071400
     17 C15         -6.2870    -0.6120    -0.7700 c3         1 VCA      -0.076400
     18 C16         -7.3910    -1.3710    -0.0010 c3         1 VCA      -0.074400
     19 C17         -7.7020    -2.7580    -0.6030 c3         1 VCA      -0.076400
     20 C18         -8.8040    -3.5150     0.1640 c3         1 VCA      -0.088100
     21 H21          6.4900    -2.6590     0.2140 hc         1 VCA       0.014200
     22 H22          7.1260    -1.3410     1.3240 hc         1 VCA       0.014200
     23 H31          6.3050     0.3400    -0.2620 hc         1 VCA       0.037700
     24 H32          5.6940    -0.9250    -1.3270 hc         1 VCA       0.037700
     25 H41          4.1420    -1.7060     0.4890 hc         1 VCA       0.023700
     26 H42          4.7530    -0.4400     1.5550 hc         1 VCA       0.023700
     27 H51          3.9270     1.3090    -0.0480 hc         1 VCA       0.033700
     28 H52          3.3160     0.0440    -1.1140 hc         1 VCA       0.033700
     29 H61          1.7650    -0.7360     0.7020 hc         1 VCA       0.031700
     30 H62          2.3760     0.5300     1.7680 hc         1 VCA       0.031700
     31 H71          1.5500     2.2790     0.1640 hc         1 VCA       0.035700
     32 H72          0.9380     1.0130    -0.9010 hc         1 VCA       0.035700
     33 H81         -0.6120     0.2330     0.9150 hc         1 VCA       0.034700
     34 H82         -0.0020     1.4990     1.9810 hc         1 VCA       0.034700
     35 H91         -0.8310     3.2480     0.3760 hc         1 VCA       0.038700
     36 H92         -1.4400     1.9810    -0.6890 hc         1 VCA       0.038700
     37 H101        -2.9740     1.1940     1.1450 hc         1 VCA       0.042700
     38 H102        -2.3870     2.4730     2.1880 hc         1 VCA       0.042700
     39 H11         -3.4790     4.2060     0.9150 ha         1 VCA       0.163000
     40 H12         -5.2480     3.6800    -0.6500 ha         1 VCA       0.160000
     41 H131        -5.1760     1.6640    -1.9770 hc         1 VCA       0.045700
     42 H132        -3.9650     0.9150    -0.9580 hc         1 VCA       0.045700
     43 H141        -5.6660     0.6530     0.8790 hc         1 VCA       0.037700
     44 H142        -6.8890     1.3820    -0.1620 hc         1 VCA       0.037700
     45 H151        -6.5950    -0.4890    -1.8160 hc         1 VCA       0.037700
     46 H152        -5.3710    -1.2170    -0.7740 hc         1 VCA       0.037700
     47 H161        -7.0830    -1.4930     1.0450 hc         1 VCA       0.036200
     48 H162        -8.3070    -0.7660     0.0040 hc         1 VCA       0.036200
     49 H171        -8.0130    -2.6400    -1.6480 hc         1 VCA       0.037200
     50 H172        -6.7890    -3.3660    -0.6070 hc         1 VCA       0.037200
     51 H181        -8.5070    -3.6810     1.2070 hc         1 VCA       0.030033
     52 H182        -9.7420    -2.9480     0.1560 hc         1 VCA       0.030033
     53 H183        -8.9890    -4.4920    -0.2990 hc         1 VCA       0.030033
@<TRIPOS>BOND
     1     1     2 1   
     2     2     3 1   
     3     2     4 1   
     4     4     5 1   
     5     4    21 1   
     6     4    22 1   
     7     5     6 1   
     8     5    23 1   
     9     5    24 1   
    10     6     7 1   
    11     6    25 1   
    12     6    26 1   
    13     7     8 1   
    14     7    27 1   
    15     7    28 1   
    16     8     9 1   
    17     8    29 1   
    18     8    30 1   
    19     9    10 1   
    20     9    31 1   
    21     9    32 1   
    22    10    11 1   
    23    10    33 1   
    24    10    34 1   
    25    11    12 1   
    26    11    35 1   
    27    11    36 1   
    28    12    13 1   
    29    12    37 1   
    30    12    38 1   
    31    13    14 2   
    32    13    39 1   
    33    14    15 1   
    34    14    40 1   
    35    15    16 1   
    36    15    41 1   
    37    15    42 1   
    38    16    17 1   
    39    16    43 1   
    40    16    44 1   
    41    17    18 1   
    42    17    45 1   
    43    17    46 1   
    44    18    19 1   
    45    18    47 1   
    46    18    48 1   
    47    19    20 1   
    48    19    49 1   
    49    19    50 1   
    50    20    51 1   
    51    20    52 1   
    52    20    53 1   
@<TRIPOS>SUBSTRUCTURE
     1 VCA         1 TEMP              0 ****  ****    0 ROOT
