@<TRIPOS>MOLECULE
VCB
   41    44     1     0     0
SMALL
abcg2


@<TRIPOS>ATOM
      1 C1          43.0520   -26.9400    10.3580 c          1 VCB       0.603300
      2 C10         35.2880   -25.6570     7.6650 ca         1 VCB      -0.139000
      3 C11         36.2930   -25.0440     8.4090 ca         1 VCB      -0.124000
      4 C12         36.5660   -25.4740     9.7030 ca         1 VCB      -0.096500
      5 C13         35.4390   -26.0170    12.7090 c          1 VCB       0.720000
      6 C14         40.1580   -28.0870    13.2120 ca         1 VCB      -0.060000
      7 C15         41.4750   -28.0470    13.6560 ca         1 VCB      -0.133000
      8 C16         42.4990   -27.6860    12.7790 ca         1 VCB      -0.044000
      9 C17         40.8240   -27.0060     9.5850 cp         1 VCB      -0.007000
     10 C18         39.7930   -26.8520     8.6740 ca         1 VCB      -0.068000
     11 C19         40.1020   -26.4080     7.3840 ca         1 VCB      -0.088000
     12 C2          42.1630   -27.3760    11.4750 ca         1 VCB      -0.192600
     13 C20         41.4120   -26.1280     7.0060 ca         1 VCB      -0.133000
     14 C21         42.4540   -26.2820     7.9220 ca         1 VCB      -0.054000
     15 C22         42.1460   -26.7150     9.1980 ca         1 VCB      -0.186600
     16 C3          40.8370   -27.4240    11.0100 cp         1 VCB       0.024000
     17 C4          39.8190   -27.7870    11.8840 ca         1 VCB      -0.106600
     18 C5          38.3910   -27.9100    11.4350 c          1 VCB       0.590700
     19 C6          36.1260   -26.9810    11.6850 c3         1 VCB      -0.011000
     20 C7          35.8460   -26.5260    10.2680 ca         1 VCB      -0.027300
     21 C8          34.8430   -27.1360     9.5180 ca         1 VCB      -0.096500
     22 C9          34.5630   -26.7050     8.2250 ca         1 VCB      -0.124000
     23 N1          37.5440   -27.0330    11.9820 ns         1 VCB      -0.457900
     24 O1          44.2600   -26.7980    10.3940 o          1 VCB      -0.522100
     25 O4          38.0540   -28.7740    10.6200 o          1 VCB      -0.636100
     26 H5          35.0770   -25.3250     6.6560 ha         1 VCB       0.089000
     27 H6          36.8670   -24.2320     7.9800 ha         1 VCB       0.092500
     28 H7          37.3560   -25.0000    10.2720 ha         1 VCB       0.115500
     29 H8          39.3710   -28.3650    13.9020 ha         1 VCB       0.129000
     30 H9          41.7000   -28.2930    14.6850 ha         1 VCB       0.113000
     31 H10         43.5290   -27.6440    13.1090 ha         1 VCB       0.121000
     32 H11         38.7690   -27.0690     8.9360 ha         1 VCB       0.159000
     33 H12         39.3010   -26.2800     6.6670 ha         1 VCB       0.117000
     34 H13         41.6220   -25.7890     6.0000 ha         1 VCB       0.108000
     35 H14         43.4790   -26.0650     7.6460 ha         1 VCB       0.120000
     36 H2          35.6910   -27.9720    11.8260 h1         1 VCB       0.063700
     37 H3          34.2850   -27.9600     9.9470 ha         1 VCB       0.115500
     38 H4          33.7850   -27.1940     7.6510 ha         1 VCB       0.092500
     39 H1          37.8580   -26.3350    12.6440 hn         1 VCB       0.351500
     40 O2          36.1980   -25.2900    13.3930 o          1 VCB      -0.708000
     41 O3          34.1910   -26.0590    12.7330 o          1 VCB      -0.708000
@<TRIPOS>BOND
     1     1    12 1   
     2     1    15 1   
     3     1    24 2   
     4     2     3 ar  
     5     2    22 ar  
     6     2    26 1   
     7     3     4 ar  
     8     3    27 1   
     9     4    20 ar  
    10     4    28 1   
    11     5    19 1   
    12     5    40 1   
    13     5    41 1   
    14     6     7 ar  
    15     6    17 ar  
    16     6    29 1   
    17     7     8 ar  
    18     7    30 1   
    19     8    12 ar  
    20     8    31 1   
    21     9    10 ar  
    22     9    15 ar  
    23     9    16 1   
    24    10    11 ar  
    25    10    32 1   
    26    11    13 ar  
    27    11    33 1   
    28    12    16 ar  
    29    13    14 ar  
    30    13    34 1   
    31    14    15 ar  
    32    14    35 1   
    33    16    17 ar  
    34    17    18 1   
    35    18    23 1   
    36    18    25 2   
    37    19    20 1   
    38    19    23 1   
    39    19    36 1   
    40    20    21 ar  
    41    21    22 ar  
    42    21    37 1   
    43    22    38 1   
    44    23    39 1   
@<TRIPOS>SUBSTRUCTURE
     1 VCB         1 TEMP              0 ****  ****    0 ROOT
