@<TRIPOS>MOLECULE
VCB
   41    44     1     0     0
SMALL
No Charge or Current Charge


@<TRIPOS>ATOM
      1 C1          42.8660   -26.9540    10.2190 c          1 VCB       0.603300
      2 C10         35.8590   -25.4320     7.6460 ca         1 VCB      -0.139000
      3 C11         36.4820   -24.6790     8.6540 ca         1 VCB      -0.124000
      4 C12         36.5410   -25.1750     9.9680 ca         1 VCB      -0.096500
      5 C13         35.2760   -26.1210    12.7210 c          1 VCB       0.720000
      6 C14         40.1930   -28.0480    13.3480 ca         1 VCB      -0.060000
      7 C15         41.5500   -27.8990    13.7160 ca         1 VCB      -0.133000
      8 C16         42.5180   -27.5540    12.7520 ca         1 VCB      -0.044000
      9 C17         40.6370   -27.1260     9.5840 cp         1 VCB      -0.007000
     10 C18         39.5210   -27.0110     8.7210 ca         1 VCB      -0.068000
     11 C19         39.7220   -26.6240     7.3780 ca         1 VCB      -0.088000
     12 C2          42.0850   -27.3500    11.4350 ca         1 VCB      -0.192600
     13 C20         41.0200   -26.3420     6.8940 ca         1 VCB      -0.133000
     14 C21         42.1360   -26.4310     7.7490 ca         1 VCB      -0.054000
     15 C22         41.9070   -26.8170     9.0770 ca         1 VCB      -0.186600
     16 C3          40.7490   -27.4770    11.0290 cp         1 VCB       0.024000
     17 C4          39.7930   -27.8590    12.0060 ca         1 VCB      -0.106600
     18 C5          38.3760   -28.0360    11.5670 c          1 VCB       0.590700
     19 C6          36.0760   -26.9900    11.7020 c3         1 VCB      -0.011000
     20 C7          35.9760   -26.4280    10.2840 ca         1 VCB      -0.027300
     21 C8          35.3520   -27.1770     9.2660 ca         1 VCB      -0.096500
     22 C9          35.2930   -26.6800     7.9520 ca         1 VCB      -0.124000
     23 N1          37.4920   -27.1360    12.1110 ns         1 VCB      -0.457900
     24 O1          44.0760   -26.7680    10.1700 o          1 VCB      -0.522100
     25 O4          38.0270   -28.9300    10.8070 o          1 VCB      -0.636100
     26 H5          35.8160   -25.0490     6.6290 ha         1 VCB       0.089000
     27 H6          36.9240   -23.7140     8.4180 ha         1 VCB       0.092500
     28 H7          37.0340   -24.5890    10.7400 ha         1 VCB       0.115500
     29 H8          39.4580   -28.3290    14.1010 ha         1 VCB       0.129000
     30 H9          41.8500   -28.0570    14.7500 ha         1 VCB       0.113000
     31 H10         43.5650   -27.4400    13.0250 ha         1 VCB       0.121000
     32 H11         38.5110   -27.2020     9.0650 ha         1 VCB       0.159000
     33 H12         38.8670   -26.5370     6.7120 ha         1 VCB       0.117000
     34 H13         41.1570   -26.0420     5.8570 ha         1 VCB       0.108000
     35 H14         43.1380   -26.1980     7.3940 ha         1 VCB       0.120000
     36 H2          35.6210   -27.9890    11.7230 h1         1 VCB       0.063700
     37 H3          34.9210   -28.1500     9.4910 ha         1 VCB       0.115500
     38 H4          34.8130   -27.2650     7.1720 ha         1 VCB       0.092500
     39 H1          37.8740   -26.4490    12.7520 hn         1 VCB       0.351500
     40 O2          35.8690   -25.2450    13.3380 o          1 VCB      -0.708000
     41 O3          34.0870   -26.3670    12.8800 o          1 VCB      -0.708000
@<TRIPOS>BOND
     1     1    12 1   
     2     1    15 1   
     3     1    24 2   
     4     2     3 ar  
     5     2    22 ar  
     6     2    26 1   
     7     3     4 ar  
     8     3    27 1   
     9     4    20 ar  
    10     4    28 1   
    11     5    19 1   
    12     5    40 1   
    13     5    41 1   
    14     6     7 ar  
    15     6    17 ar  
    16     6    29 1   
    17     7     8 ar  
    18     7    30 1   
    19     8    12 ar  
    20     8    31 1   
    21     9    10 ar  
    22     9    15 ar  
    23     9    16 1   
    24    10    11 ar  
    25    10    32 1   
    26    11    13 ar  
    27    11    33 1   
    28    12    16 ar  
    29    13    14 ar  
    30    13    34 1   
    31    14    15 ar  
    32    14    35 1   
    33    16    17 ar  
    34    17    18 1   
    35    18    23 1   
    36    18    25 2   
    37    19    20 1   
    38    19    23 1   
    39    19    36 1   
    40    20    21 ar  
    41    21    22 ar  
    42    21    37 1   
    43    22    38 1   
    44    23    39 1   
@<TRIPOS>SUBSTRUCTURE
     1 VCB         1 TEMP              0 ****  ****    0 ROOT
