@<TRIPOS>MOLECULE
VCC
   26    27     1     0     0
SMALL
abcg2


@<TRIPOS>ATOM
      1 F01         -9.6000   -36.7130   -19.0760 f          1 VCC      -0.113000
      2 C02         -8.7820   -36.6000   -20.1240 c3         1 VCC       0.403300
      3 F03         -7.7530   -37.4210   -19.8840 f          1 VCC      -0.113000
      4 F04         -9.4170   -37.0900   -21.1920 f          1 VCC      -0.113000
      5 C05         -8.3420   -35.1880   -20.3260 cc         1 VCC      -0.261300
      6 C06         -9.1090   -34.0460   -20.4380 cd         1 VCC      -0.158600
      7 C07        -10.6080   -33.8630   -20.4800 c          1 VCC       0.737600
      8 O08        -10.9940   -32.6800   -20.4520 o          1 VCC      -0.708000
      9 O09        -11.3010   -34.8930   -20.5550 o          1 VCC      -0.708000
     10 C10         -8.1530   -33.0220   -20.5530 cd         1 VCC       0.247900
     11 N11         -6.9230   -33.4870   -20.5240 nc         1 VCC      -0.553800
     12 N12         -7.0390   -34.8060   -20.3800 na         1 VCC       0.200000
     13 C13         -5.8580   -35.5990   -20.3710 ca         1 VCC      -0.034200
     14 C14         -5.1060   -35.6840   -19.2120 ca         1 VCC      -0.044000
     15 C15         -3.9570   -36.4580   -19.1790 ca         1 VCC      -0.167000
     16 C16         -3.5810   -37.1440   -20.3290 ca         1 VCC      -0.072000
     17 C17         -4.3260   -37.0510   -21.4910 ca         1 VCC      -0.193000
     18 C18         -5.4880   -36.2710   -21.5430 ca         1 VCC       0.315000
     19 N19         -6.2670   -36.2240   -22.6730 nv         1 VCC      -1.062000
     20 H2          -8.3330   -31.9630   -20.6600 h4         1 VCC       0.044100
     21 H3          -5.4340   -35.1450   -18.3330 ha         1 VCC       0.127000
     22 H4          -3.3710   -36.5290   -18.2740 ha         1 VCC       0.108000
     23 H5          -2.6890   -37.7580   -20.3240 ha         1 VCC       0.098000
     24 H6          -4.0110   -37.5870   -22.3780 ha         1 VCC       0.103000
     25 H7          -6.8050   -35.3860   -22.8230 hn         1 VCC       0.458000
     26 H8          -5.8140   -36.5300   -23.5200 hn         1 VCC       0.458000
@<TRIPOS>BOND
     1     1     2 1   
     2     2     3 1   
     3     2     4 1   
     4     2     5 1   
     5     5     6 2   
     6     5    12 1   
     7     6     7 1   
     8     6    10 1   
     9     7     8 1   
    10     7     9 1   
    11    10    11 2   
    12    10    20 1   
    13    11    12 1   
    14    12    13 1   
    15    13    14 ar  
    16    13    18 ar  
    17    14    15 ar  
    18    14    21 1   
    19    15    16 ar  
    20    15    22 1   
    21    16    17 ar  
    22    16    23 1   
    23    17    18 ar  
    24    17    24 1   
    25    18    19 1   
    26    19    25 1   
    27    19    26 1   
@<TRIPOS>SUBSTRUCTURE
     1 VCC         1 TEMP              0 ****  ****    0 ROOT
