@<TRIPOS>MOLECULE
VCC
   26    27     1     0     0
SMALL
No Charge or Current Charge


@<TRIPOS>ATOM
      1 F01         -9.3950   -36.7180   -18.7640 f          1 VCC      -0.113000
      2 C02         -8.8080   -36.6510   -19.9800 c3         1 VCC       0.403300
      3 F03         -7.7950   -37.5470   -19.9640 f          1 VCC      -0.113000
      4 F04         -9.7010   -37.1060   -20.8880 f          1 VCC      -0.113000
      5 C05         -8.3650   -35.2290   -20.3030 cc         1 VCC      -0.261300
      6 C06         -9.0910   -34.0540   -20.4340 cd         1 VCC      -0.158600
      7 C07        -10.5610   -33.8490   -20.2860 c          1 VCC       0.737600
      8 O08        -10.9950   -32.7170   -20.4480 o          1 VCC      -0.708000
      9 O09        -11.2870   -34.7920   -20.0110 o          1 VCC      -0.708000
     10 C10         -8.1700   -33.0260   -20.7420 cd         1 VCC       0.247900
     11 N11         -6.9210   -33.4410   -20.8120 nc         1 VCC      -0.553800
     12 N12         -7.0660   -34.7800   -20.5540 na         1 VCC       0.200000
     13 C13         -5.9190   -35.5720   -20.4850 ca         1 VCC      -0.034200
     14 C14         -5.2880   -35.7540   -19.2370 ca         1 VCC      -0.044000
     15 C15         -4.1390   -36.5550   -19.1340 ca         1 VCC      -0.167000
     16 C16         -3.6130   -37.1800   -20.2750 ca         1 VCC      -0.072000
     17 C17         -4.2370   -37.0000   -21.5210 ca         1 VCC      -0.193000
     18 C18         -5.3850   -36.2000   -21.6370 ca         1 VCC       0.315000
     19 N19         -5.9550   -36.0550   -22.8800 nv         1 VCC      -1.062000
     20 H2          -8.3820   -31.9770   -20.9100 h4         1 VCC       0.044100
     21 H3          -5.6940   -35.2740   -18.3490 ha         1 VCC       0.127000
     22 H4          -3.6580   -36.6930   -18.1680 ha         1 VCC       0.108000
     23 H5          -2.7240   -37.8010   -20.1950 ha         1 VCC       0.098000
     24 H6          -3.8220   -37.4870   -22.4000 ha         1 VCC       0.103000
     25 H7          -6.6490   -35.3230   -23.0120 hn         1 VCC       0.458000
     26 H8          -5.4410   -36.3580   -23.7040 hn         1 VCC       0.458000
@<TRIPOS>BOND
     1     1     2 1   
     2     2     3 1   
     3     2     4 1   
     4     2     5 1   
     5     5     6 2   
     6     5    12 1   
     7     6     7 1   
     8     6    10 1   
     9     7     8 1   
    10     7     9 1   
    11    10    11 2   
    12    10    20 1   
    13    11    12 1   
    14    12    13 1   
    15    13    14 ar  
    16    13    18 ar  
    17    14    15 ar  
    18    14    21 1   
    19    15    16 ar  
    20    15    22 1   
    21    16    17 ar  
    22    16    23 1   
    23    17    18 ar  
    24    17    24 1   
    25    18    19 1   
    26    19    25 1   
    27    19    26 1   
@<TRIPOS>SUBSTRUCTURE
     1 VCC         1 TEMP              0 ****  ****    0 ROOT
