@<TRIPOS>MOLECULE
VCD
   53    57     1     0     0
SMALL
No Charge or Current Charge


@<TRIPOS>ATOM
      1 C11         15.3240    19.2930    64.5570 c6         1 VCD       0.143600
      2 C01         19.1490    17.3420    65.8040 ca         1 VCD      -0.283000
      3 C02         20.4610    16.9020    66.0070 ca         1 VCD       0.218300
      4 C04         21.1500    19.0850    66.3020 cp         1 VCD       0.265500
      5 C06         18.9040    18.7220    65.8740 ca         1 VCD       0.397900
      6 C08         17.1980    20.5280    66.4320 c6         1 VCD       0.198500
      7 C09         16.0150    21.2670    65.7270 c6         1 VCD       0.141600
      8 C12         16.4710    18.4450    65.1830 c6         1 VCD       0.181800
      9 C13         16.8570    20.1690    67.9040 c3         1 VCD      -0.109100
     10 C14         22.2720    20.0460    66.6100 cp         1 VCD      -0.107500
     11 C15         23.4610    19.5920    67.2570 ca         1 VCD      -0.091000
     12 C16         24.5210    20.4710    67.5690 ca         1 VCD      -0.108000
     13 C17         24.4320    21.8340    67.2410 ca         1 VCD      -0.109000
     14 C18         23.2720    22.2840    66.6000 ca         1 VCD      -0.066200
     15 C19         22.2340    21.4360    66.2910 ca         1 VCD      -0.055800
     16 C20         21.2620    22.2610    65.6200 cc         1 VCD      -0.226200
     17 C21         21.7510    23.5580    65.5700 cd         1 VCD      -0.170100
     18 C23         20.8190    15.4520    65.9360 cx         1 VCD      -0.419300
     19 C25         21.7680    15.4890    68.6450 c3         1 VCD      -0.319100
     20 C28         20.5130    14.6420    64.6870 cx         1 VCD      -0.067400
     21 C29         21.9470    14.9630    65.0410 cx         1 VCD      -0.067400
     22 N03         21.4570    17.7720    66.2450 nb         1 VCD      -0.259000
     23 N05         19.9090    19.5800    66.1270 nb         1 VCD      -0.254000
     24 N07         17.6130    19.2810    65.6930 nh         1 VCD      -0.771300
     25 N22         23.0180    23.5840    66.1900 na         1 VCD      -0.223700
     26 O10         14.9260    20.3620    65.4420 os         1 VCD      -0.436000
     27 O26         19.2280    14.9890    68.0800 o          1 VCD      -0.523500
     28 O27         20.9780    13.2440    67.4940 o          1 VCD      -0.523500
     29 S24         20.5760    14.6520    67.6040 s6         1 VCD       1.137000
     30 H111        14.4560    18.6500    64.3530 h1         1 VCD       0.053700
     31 H112        15.6590    19.7220    63.6020 h1         1 VCD       0.053700
     32 H011        18.3580    16.6250    65.6160 ha         1 VCD       0.130000
     33 H081        18.0290    21.2490    66.4620 h1         1 VCD       0.093700
     34 H091        16.3680    21.7110    64.7850 h1         1 VCD       0.055200
     35 H092        15.6490    22.0840    66.3640 h1         1 VCD       0.055200
     36 H121        16.0570    17.8380    66.0020 h1         1 VCD       0.052700
     37 H122        16.8240    17.7500    64.4070 h1         1 VCD       0.052700
     38 H133        17.7120    19.7010    68.4060 hc         1 VCD       0.046700
     39 H131        16.5910    21.0660    68.4750 hc         1 VCD       0.046700
     40 H132        16.0110    19.4730    67.9640 hc         1 VCD       0.046700
     41 H151        23.5650    18.5460    67.5360 ha         1 VCD       0.132000
     42 H161        25.4110    20.0910    68.0670 ha         1 VCD       0.115000
     43 H171        25.2450    22.5170    67.4750 ha         1 VCD       0.113000
     44 H201        20.3100    21.9510    65.1960 ha         1 VCD       0.213000
     45 H211        21.3010    24.4510    65.1390 h4         1 VCD       0.210000
     46 H252        21.7360    15.0110    69.6290 h1         1 VCD       0.107033
     47 H253        22.7510    15.3740    68.1780 h1         1 VCD       0.107033
     48 H251        21.4770    16.5410    68.7100 h1         1 VCD       0.107033
     49 H281        20.0790    15.1590    63.8340 hc         1 VCD       0.090950
     50 H282        20.1830    13.6110    64.8020 hc         1 VCD       0.090950
     51 H291        22.5750    14.1450    65.3910 hc         1 VCD       0.090950
     52 H292        22.4660    15.6910    64.4210 hc         1 VCD       0.090950
     53 H221        23.6260    24.3900    66.3060 hn         1 VCD       0.349000
@<TRIPOS>BOND
     1     1     8 1   
     2     1    26 1   
     3     1    30 1   
     4     1    31 1   
     5     2     3 ar  
     6     2     5 ar  
     7     2    32 1   
     8     3    18 1   
     9     3    22 ar  
    10     4    10 1   
    11     4    22 ar  
    12     4    23 ar  
    13     5    23 ar  
    14     5    24 1   
    15     6     7 1   
    16     6     9 1   
    17     6    24 1   
    18     6    33 1   
    19     7    26 1   
    20     7    34 1   
    21     7    35 1   
    22     8    24 1   
    23     8    36 1   
    24     8    37 1   
    25     9    38 1   
    26     9    39 1   
    27     9    40 1   
    28    10    11 ar  
    29    10    15 ar  
    30    11    12 ar  
    31    11    41 1   
    32    12    13 ar  
    33    12    42 1   
    34    13    14 ar  
    35    13    43 1   
    36    14    15 ar  
    37    14    25 1   
    38    15    16 1   
    39    16    17 2   
    40    16    44 1   
    41    17    25 1   
    42    17    45 1   
    43    18    20 1   
    44    18    21 1   
    45    18    29 1   
    46    19    29 1   
    47    19    46 1   
    48    19    47 1   
    49    19    48 1   
    50    20    21 1   
    51    20    49 1   
    52    20    50 1   
    53    21    51 1   
    54    21    52 1   
    55    25    53 1   
    56    27    29 2   
    57    28    29 2   
@<TRIPOS>SUBSTRUCTURE
     1 VCD         1 TEMP              0 ****  ****    0 ROOT
