@<TRIPOS>MOLECULE
VCD
   53    57     1     0     0
SMALL
bcc


@<TRIPOS>ATOM
      1 C11         15.5070    19.1580    64.2670 c6         1 VCD       0.120400
      2 C01         18.9790    17.3330    65.9650 ca         1 VCD      -0.431600
      3 C02         20.2340    16.9050    66.3390 ca         1 VCD       0.546600
      4 C04         20.8860    19.0430    66.7120 cp         1 VCD       0.791500
      5 C06         18.7550    18.7260    65.9510 ca         1 VCD       0.726200
      6 C08         17.2940    20.6790    65.8580 c6         1 VCD       0.198500
      7 C09         16.3380    21.2300    64.8100 c6         1 VCD       0.118400
      8 C12         16.4290    18.4510    65.2440 c6         1 VCD       0.181800
      9 C13         16.7670    20.8400    67.2800 c3         1 VCD      -0.109100
     10 C14         21.9350    19.9720    67.1780 cp         1 VCD      -0.107500
     11 C15         22.8950    19.5200    68.0730 ca         1 VCD      -0.109000
     12 C16         23.9070    20.3570    68.5560 ca         1 VCD      -0.126000
     13 C17         24.0010    21.6720    68.1460 ca         1 VCD      -0.127000
     14 C18         23.0480    22.1300    67.2410 ca         1 VCD      -0.066200
     15 C19         22.0000    21.3140    66.7490 ca         1 VCD      -0.055800
     16 C20         21.2500    22.1260    65.8440 cc         1 VCD      -0.176200
     17 C21         21.8480    23.3540    65.8250 cd         1 VCD      -0.120100
     18 C23         20.6160    15.4640    66.3080 cx         1 VCD      -0.308500
     19 C25         23.4010    15.5750    66.9480 c3         1 VCD      -0.208300
     20 C28         19.6380    14.3870    65.9240 cx         1 VCD      -0.067400
     21 C29         20.7120    14.7610    64.9730 cx         1 VCD      -0.067400
     22 N03         21.1940    17.7520    66.7050 nb         1 VCD      -0.785000
     23 N05         19.7230    19.5570    66.3490 nb         1 VCD      -0.780000
     24 N07         17.5860    19.2770    65.5470 nh         1 VCD      -0.771300
     25 N22         22.9200    23.3590    66.6640 na         1 VCD      -0.173400
     26 O10         15.1700    20.4530    64.6960 os         1 VCD      -0.389600
     27 O26         21.5010    15.5730    68.8110 o          1 VCD      -0.594300
     28 O27         21.9130    13.4970    67.4750 o          1 VCD      -0.594300
     29 S24         21.8340    14.9590    67.5280 s6         1 VCD       1.057000
     30 H111        14.5840    18.5840    64.1680 h1         1 VCD       0.053700
     31 H112        15.9900    19.1970    63.2800 h1         1 VCD       0.053700
     32 H011        18.2070    16.6290    65.7070 ha         1 VCD       0.148000
     33 H081        18.2200    21.2420    65.7640 h1         1 VCD       0.093700
     34 H091        16.8550    21.2860    63.8420 h1         1 VCD       0.055200
     35 H092        16.0390    22.2410    65.0900 h1         1 VCD       0.055200
     36 H121        15.8890    18.1840    66.1600 h1         1 VCD       0.052700
     37 H122        16.7410    17.5240    64.7680 h1         1 VCD       0.052700
     38 H133        17.4880    20.4600    68.0040 hc         1 VCD       0.046700
     39 H131        16.5990    21.8950    67.4990 hc         1 VCD       0.046700
     40 H132        15.8230    20.3150    67.4330 hc         1 VCD       0.046700
     41 H151        22.8460    18.4980    68.4230 ha         1 VCD       0.150000
     42 H161        24.6250    19.9640    69.2640 ha         1 VCD       0.133000
     43 H171        24.7870    22.3210    68.5120 ha         1 VCD       0.131000
     44 H201        20.3800    21.8430    65.2780 ha         1 VCD       0.163000
     45 H211        21.5810    24.2390    65.2690 h4         1 VCD       0.160000
     46 H252        24.1540    15.2130    67.6480 h1         1 VCD       0.107033
     47 H253        23.5950    15.1710    65.9570 h1         1 VCD       0.107033
     48 H251        23.3820    16.6590    66.9250 h1         1 VCD       0.107033
     49 H281        18.6220    14.6930    65.7180 hc         1 VCD       0.090950
     50 H282        19.7120    13.4360    66.4310 hc         1 VCD       0.090950
     51 H291        21.5280    14.0660    64.8170 hc         1 VCD       0.090950
     52 H292        20.4630    15.3640    64.1090 hc         1 VCD       0.090950
     53 H221        23.5310    24.1440    66.8210 hn         1 VCD       0.298700
@<TRIPOS>BOND
     1     1     8 1   
     2     1    26 1   
     3     1    30 1   
     4     1    31 1   
     5     2     3 ar  
     6     2     5 ar  
     7     2    32 1   
     8     3    18 1   
     9     3    22 ar  
    10     4    10 1   
    11     4    22 ar  
    12     4    23 ar  
    13     5    23 ar  
    14     5    24 1   
    15     6     7 1   
    16     6     9 1   
    17     6    24 1   
    18     6    33 1   
    19     7    26 1   
    20     7    34 1   
    21     7    35 1   
    22     8    24 1   
    23     8    36 1   
    24     8    37 1   
    25     9    38 1   
    26     9    39 1   
    27     9    40 1   
    28    10    11 ar  
    29    10    15 ar  
    30    11    12 ar  
    31    11    41 1   
    32    12    13 ar  
    33    12    42 1   
    34    13    14 ar  
    35    13    43 1   
    36    14    15 ar  
    37    14    25 1   
    38    15    16 1   
    39    16    17 2   
    40    16    44 1   
    41    17    25 1   
    42    17    45 1   
    43    18    20 1   
    44    18    21 1   
    45    18    29 1   
    46    19    29 1   
    47    19    46 1   
    48    19    47 1   
    49    19    48 1   
    50    20    21 1   
    51    20    49 1   
    52    20    50 1   
    53    21    51 1   
    54    21    52 1   
    55    25    53 1   
    56    27    29 2   
    57    28    29 2   
@<TRIPOS>SUBSTRUCTURE
     1 VCD         1 TEMP              0 ****  ****    0 ROOT
