@<TRIPOS>MOLECULE
VCE
   29    30     1     0     0
SMALL
No Charge or Current Charge


@<TRIPOS>ATOM
      1 OA           2.4340    -0.4230    -3.3490 o          1 VCE      -0.712000
      2 O1          -3.8020     1.9450     0.1490 o          1 VCE      -0.724000
      3 OB           4.1590    -0.3270    -2.0940 o          1 VCE      -0.712000
      4 O4          -4.5960     0.5590     1.5860 o          1 VCE      -0.724000
      5 C8           2.4200     0.0450     0.2730 c2         1 VCE      -0.296200
      6 C5          -1.2840    -2.0240     1.1640 ca         1 VCE      -0.187000
      7 C4          -0.2600    -1.6720     0.2740 ca         1 VCE      -0.143000
      8 C6          -2.3980    -1.1860     1.3310 ca         1 VCE      -0.075000
      9 C10          4.1320     0.7650     2.0840 cx         1 VCE      -0.163900
     10 C11          4.5590     1.4170     0.7920 cx         1 VCE      -0.163900
     11 O3           0.6570    -0.1320    -1.3410 os         1 VCE      -0.245200
     12 C            2.9430    -0.3030    -2.2390 c          1 VCE       0.699200
     13 C7           2.0130    -0.1420    -1.0200 ce         1 VCE       0.042900
     14 C2          -1.4750     0.3730    -0.2950 ca         1 VCE       0.190100
     15 C3          -0.3450    -0.4690    -0.4500 ca         1 VCE       0.097100
     16 C1          -2.5150     0.0240     0.6040 ca         1 VCE      -0.268600
     17 C9           3.8270     0.0960     0.7650 cx         1 VCE      -0.002500
     18 HO2         -2.4420     1.9270    -0.7120 ho         1 VCE       0.533000
     19 H8           1.6770     0.1850     1.0570 ha         1 VCE       0.140000
     20 H5          -1.2160    -2.9520     1.7270 ha         1 VCE       0.073000
     21 H4           0.5970    -2.3290     0.1440 ha         1 VCE       0.111000
     22 H6          -3.1760    -1.4880     2.0290 ha         1 VCE       0.101000
     23 H10          4.9050     0.3230     2.7080 hc         1 VCE       0.049450
     24 H10A         3.3100     1.2210     2.6310 hc         1 VCE       0.049450
     25 H11          4.0190     2.3030     0.4690 hc         1 VCE       0.049450
     26 H11A         5.6170     1.4120     0.5460 hc         1 VCE       0.049450
     27 H9           4.4150    -0.7920     0.5320 hc         1 VCE       0.115700
     28 C12         -3.7330     0.9090     0.7970 c          1 VCE       0.727600
     29 O2          -1.5700     1.5330    -1.0080 oh         1 VCE      -0.611100
@<TRIPOS>BOND
     1     1    12 1   
     2     2    28 1   
     3     3    12 1   
     4     4    28 1   
     5     5    13 2   
     6     5    17 1   
     7     5    19 1   
     8     6     7 ar  
     9     6     8 ar  
    10     6    20 1   
    11     7    15 ar  
    12     7    21 1   
    13     8    16 ar  
    14     8    22 1   
    15     9    10 1   
    16     9    17 1   
    17     9    23 1   
    18     9    24 1   
    19    10    17 1   
    20    10    25 1   
    21    10    26 1   
    22    11    13 1   
    23    11    15 1   
    24    12    13 1   
    25    14    15 ar  
    26    14    16 ar  
    27    14    29 1   
    28    16    28 1   
    29    17    27 1   
    30    18    29 1   
@<TRIPOS>SUBSTRUCTURE
     1 VCE         1 TEMP              0 ****  ****    0 ROOT
