@<TRIPOS>MOLECULE
VCE
   29    30     1     0     0
SMALL
abcg2


@<TRIPOS>ATOM
      1 OA           1.1320    -0.8740    -2.2910 o          1 VCE      -0.712000
      2 O1          -4.1970     1.5790    -0.5390 o          1 VCE      -0.724000
      3 OB           3.0010    -1.6440    -1.3510 o          1 VCE      -0.712000
      4 O4          -5.1910    -0.2180     0.3110 o          1 VCE      -0.724000
      5 C8           2.8490     0.7030     0.4280 c2         1 VCE      -0.296200
      6 C5          -1.4360    -1.9560     1.0820 ca         1 VCE      -0.187000
      7 C4          -0.2930    -1.2410     0.7170 ca         1 VCE      -0.143000
      8 C6          -2.6860    -1.4230     0.8470 ca         1 VCE      -0.075000
      9 C10          5.0050     0.4710     1.7830 cx         1 VCE      -0.163900
     10 C11          5.2620     1.4930     0.7280 cx         1 VCE      -0.163900
     11 O3           0.6440     0.7740    -0.2450 os         1 VCE      -0.245200
     12 C            2.0210    -0.8790    -1.4230 c          1 VCE       0.699200
     13 C7           1.8890     0.1850    -0.3410 ce         1 VCE       0.042900
     14 C2          -1.6790     0.5470    -0.1310 ca         1 VCE       0.190100
     15 C3          -0.4070    -0.0050     0.1090 ca         1 VCE       0.097100
     16 C1          -2.8230    -0.1690     0.2450 ca         1 VCE      -0.268600
     17 C9           4.2820     0.3770     0.4620 cx         1 VCE      -0.002500
     18 HO2         -2.7690     1.9100    -0.7470 ho         1 VCE       0.533000
     19 H8           2.5490     1.4980     1.1090 ha         1 VCE       0.140000
     20 H5          -1.3290    -2.9230     1.5560 ha         1 VCE       0.073000
     21 H4           0.6860    -1.6590     0.9190 ha         1 VCE       0.111000
     22 H6          -3.5770    -1.9690     1.1290 ha         1 VCE       0.101000
     23 H10          5.7690    -0.2680     1.9840 hc         1 VCE       0.049450
     24 H10A         4.4320     0.7680     2.6530 hc         1 VCE       0.049450
     25 H11          4.8630     2.4890     0.8760 hc         1 VCE       0.049450
     26 H11A         6.2060     1.4660     0.1990 hc         1 VCE       0.049450
     27 H9           4.6130    -0.4060    -0.2030 hc         1 VCE       0.115700
     28 C12         -4.1860     0.4240    -0.0050 c          1 VCE       0.727600
     29 O2          -1.7590     1.7460    -0.7060 oh         1 VCE      -0.611100
@<TRIPOS>BOND
     1     1    12 1   
     2     2    28 1   
     3     3    12 1   
     4     4    28 1   
     5     5    13 2   
     6     5    17 1   
     7     5    19 1   
     8     6     7 ar  
     9     6     8 ar  
    10     6    20 1   
    11     7    15 ar  
    12     7    21 1   
    13     8    16 ar  
    14     8    22 1   
    15     9    10 1   
    16     9    17 1   
    17     9    23 1   
    18     9    24 1   
    19    10    17 1   
    20    10    25 1   
    21    10    26 1   
    22    11    13 1   
    23    11    15 1   
    24    12    13 1   
    25    14    15 ar  
    26    14    16 ar  
    27    14    29 1   
    28    16    28 1   
    29    17    27 1   
    30    18    29 1   
@<TRIPOS>SUBSTRUCTURE
     1 VCE         1 TEMP              0 ****  ****    0 ROOT
