@<TRIPOS>MOLECULE
VCF
   41    44     1     0     0
SMALL
No Charge or Current Charge


@<TRIPOS>ATOM
      1 C11        138.3630   134.6220   108.8430 ca         1 VCF       0.180300
      2 C12        137.0190   134.9540   109.0920 ca         1 VCF      -0.094000
      3 C13        136.3520   134.4300   110.2060 ca         1 VCF       0.110000
      4 C14        137.0320   133.5830   111.0890 ca         1 VCF      -0.094000
      5 C15        138.3790   133.2560   110.8500 ca         1 VCF      -0.095000
      6 C21        140.5160   132.6700   104.8630 ca         1 VCF      -0.125000
      7 C22        141.0230   132.6460   106.1740 ca         1 VCF      -0.069000
      8 C23        140.5150   133.5240   107.1630 ca         1 VCF      -0.239500
      9 Cl1        134.6710   134.8490   110.5050 cl         1 VCF      -0.202000
     10 N02        144.7480   134.9510   109.7320 n3         1 VCF      -0.711600
     11 C03        143.9670   135.4740   108.5650 c6         1 VCF       0.134300
     12 C04        143.3120   134.3440   107.7030 c6         1 VCF       0.175800
     13 N05        142.4700   133.4250   108.5390 nh         1 VCF      -0.778300
     14 C06        143.2230   132.9030   109.7320 c6         1 VCF       0.175800
     15 C07        143.8710   134.0610   110.5600 c6         1 VCF       0.134300
     16 C08        141.0850   133.5310   108.5190 cc         1 VCF       0.517400
     17 N09        140.4330   133.3770   109.6670 nd         1 VCF      -0.479000
     18 C10        139.0700   133.7410   109.7200 ca         1 VCF       0.255000
     19 O17        138.9420   135.2020   107.7470 os         1 VCF      -0.500600
     20 C18        139.4850   134.3950   106.8040 ca         1 VCF       0.252300
     21 C19        138.9780   134.4320   105.4960 ca         1 VCF      -0.120000
     22 C20        139.4950   133.5680   104.5180 ca         1 VCF      -0.081000
     23 H1         136.4970   135.6230   108.4160 ha         1 VCF       0.139000
     24 H2         136.5210   133.1860   111.9630 ha         1 VCF       0.131000
     25 H3         138.8970   132.6100   111.5550 ha         1 VCF       0.130000
     26 H4         140.9190   131.9920   104.1130 ha         1 VCF       0.120000
     27 H5         141.8190   131.9450   106.4200 ha         1 VCF       0.127000
     28 H6         146.5870   133.9930   110.2320 h1         1 VCF       0.030367
     29 H7         145.8680   133.4350   108.7050 h1         1 VCF       0.030367
     30 H8         146.6590   135.0250   108.7890 h1         1 VCF       0.030367
     31 H10        144.6050   136.0940   107.9180 h1         1 VCF       0.064950
     32 H11        143.1610   136.1310   108.9260 h1         1 VCF       0.064950
     33 H12        142.7190   134.8200   106.9080 h1         1 VCF       0.063200
     34 H13        144.1030   133.7690   107.1990 h1         1 VCF       0.063200
     35 H14        142.5810   132.3030   110.3940 h1         1 VCF       0.063200
     36 H15        144.0180   132.2230   109.3920 h1         1 VCF       0.063200
     37 H16        144.4370   133.6290   111.3980 h1         1 VCF       0.064950
     38 H17        143.0580   134.6530   111.0060 h1         1 VCF       0.064950
     39 H18        138.1770   135.1230   105.2480 ha         1 VCF       0.134000
     40 H19        139.1020   133.5900   103.5040 ha         1 VCF       0.120000
     41 C01        146.0300   134.3150   109.3420 c3         1 VCF       0.151100
@<TRIPOS>BOND
     1     1     2 ar  
     2     1    18 ar  
     3     1    19 1   
     4     2     3 ar  
     5     2    23 1   
     6     3     4 ar  
     7     3     9 1   
     8     4     5 ar  
     9     4    24 1   
    10     5    18 ar  
    11     5    25 1   
    12     6     7 ar  
    13     6    22 ar  
    14     6    26 1   
    15     7     8 ar  
    16     7    27 1   
    17     8    16 1   
    18     8    20 ar  
    19    10    11 1   
    20    10    15 1   
    21    10    41 1   
    22    11    12 1   
    23    11    31 1   
    24    11    32 1   
    25    12    13 1   
    26    12    33 1   
    27    12    34 1   
    28    13    14 1   
    29    13    16 1   
    30    14    15 1   
    31    14    35 1   
    32    14    36 1   
    33    15    37 1   
    34    15    38 1   
    35    16    17 2   
    36    17    18 1   
    37    19    20 1   
    38    20    21 ar  
    39    21    22 ar  
    40    21    39 1   
    41    22    40 1   
    42    28    41 1   
    43    29    41 1   
    44    30    41 1   
@<TRIPOS>SUBSTRUCTURE
     1 VCF         1 TEMP              0 ****  ****    0 ROOT
