@<TRIPOS>MOLECULE
VCF
   41    44     1     0     0
SMALL
abcg2


@<TRIPOS>ATOM
      1 C11        138.4290   134.6790   108.9210 ca         1 VCF       0.180300
      2 C12        137.0750   134.9090   109.0840 ca         1 VCF      -0.094000
      3 C13        136.3970   134.2310   110.0840 ca         1 VCF       0.110000
      4 C14        137.0570   133.3290   110.9050 ca         1 VCF      -0.094000
      5 C15        138.4120   133.1170   110.7230 ca         1 VCF      -0.095000
      6 C21        140.3490   132.8250   104.9480 ca         1 VCF      -0.125000
      7 C22        140.9490   132.7740   106.1940 ca         1 VCF      -0.069000
      8 C23        140.5590   133.6490   107.2080 ca         1 VCF      -0.239500
      9 CL1        134.7020   134.5170   110.3060 cl         1 VCF      -0.202000
     10 N02        144.7130   134.9850   109.5670 n3         1 VCF      -0.711600
     11 C03        144.0630   135.2400   108.2950 c6         1 VCF       0.134300
     12 C04        143.4340   133.9990   107.6550 c6         1 VCF       0.175800
     13 N05        142.5140   133.3720   108.5990 nh         1 VCF      -0.778300
     14 C06        143.1690   133.0610   109.8610 c6         1 VCF       0.175800
     15 C07        143.7920   134.3140   110.4700 c6         1 VCF       0.134300
     16 C08        141.1730   133.5860   108.5580 cc         1 VCF       0.517400
     17 N09        140.5010   133.5950   109.6580 nd         1 VCF      -0.479000
     18 C10        139.1370   133.7740   109.7240 ca         1 VCF       0.255000
     19 O17        139.1040   135.3820   107.9480 os         1 VCF      -0.500600
     20 C18        139.5330   134.5490   106.9450 ca         1 VCF       0.252300
     21 C19        138.9290   134.6170   105.7000 ca         1 VCF      -0.120000
     22 C20        139.3500   133.7580   104.6960 ca         1 VCF      -0.081000
     23 H1         136.5680   135.6180   108.4420 ha         1 VCF       0.139000
     24 H2         136.5250   132.8030   111.6850 ha         1 VCF       0.131000
     25 H3         138.9380   132.4280   111.3730 ha         1 VCF       0.130000
     26 H4         140.6610   132.1400   104.1710 ha         1 VCF       0.120000
     27 H5         141.7290   132.0480   106.3870 ha         1 VCF       0.127000
     28 H6         146.4530   134.2150   110.4190 h1         1 VCF       0.030367
     29 H7         145.9480   133.3040   108.9970 h1         1 VCF       0.030367
     30 H8         146.6550   134.9080   108.8130 h1         1 VCF       0.030367
     31 H10        144.7840   135.6790   107.6010 h1         1 VCF       0.064950
     32 H11        143.2720   135.9820   108.4510 h1         1 VCF       0.064950
     33 H12        142.9190   134.2900   106.7430 h1         1 VCF       0.063200
     34 H13        144.2010   133.2710   107.3770 h1         1 VCF       0.063200
     35 H14        142.4510   132.6130   110.5440 h1         1 VCF       0.063200
     36 H15        143.9400   132.3130   109.6540 h1         1 VCF       0.063200
     37 H16        144.3150   134.0580   111.3940 h1         1 VCF       0.064950
     38 H17        142.9910   135.0120   110.7340 h1         1 VCF       0.064950
     39 H18        138.1420   135.3380   105.5240 ha         1 VCF       0.134000
     40 H19        138.8850   133.8070   103.7210 ha         1 VCF       0.120000
     41 C01        145.9890   134.3090   109.4360 c3         1 VCF       0.151100
@<TRIPOS>BOND
     1     1     2 ar  
     2     1    18 ar  
     3     1    19 1   
     4     2     3 ar  
     5     2    23 1   
     6     3     4 ar  
     7     3     9 1   
     8     4     5 ar  
     9     4    24 1   
    10     5    18 ar  
    11     5    25 1   
    12     6     7 ar  
    13     6    22 ar  
    14     6    26 1   
    15     7     8 ar  
    16     7    27 1   
    17     8    16 1   
    18     8    20 ar  
    19    10    11 1   
    20    10    15 1   
    21    10    41 1   
    22    11    12 1   
    23    11    31 1   
    24    11    32 1   
    25    12    13 1   
    26    12    33 1   
    27    12    34 1   
    28    13    14 1   
    29    13    16 1   
    30    14    15 1   
    31    14    35 1   
    32    14    36 1   
    33    15    37 1   
    34    15    38 1   
    35    16    17 2   
    36    17    18 1   
    37    19    20 1   
    38    20    21 ar  
    39    21    22 ar  
    40    21    39 1   
    41    22    40 1   
    42    28    41 1   
    43    29    41 1   
    44    30    41 1   
@<TRIPOS>SUBSTRUCTURE
     1 VCF         1 TEMP              0 ****  ****    0 ROOT
