@<TRIPOS>MOLECULE
VCH
   53    55     1     0     0
SMALL
abcg2


@<TRIPOS>ATOM
      1 C1         -27.6480     0.3980    -9.3790 c3         1 VCH      -0.173100
      2 C2         -28.0310     1.0440   -10.6810 c          1 VCH       0.615100
      3 C7         -26.3000    -2.1900   -14.0020 ca         1 VCH       0.000000
      4 C8         -26.3460    -2.1850   -15.3900 ca         1 VCH      -0.256500
      5 C9         -26.9560    -1.1610   -16.1070 ca         1 VCH      -0.010000
      6 C10        -27.5340    -0.1010   -15.4240 ca         1 VCH      -0.102000
      7 C11        -27.4820    -0.0950   -14.0410 ca         1 VCH      -0.048300
      8 C12        -28.0220     0.9370   -13.0940 c5         1 VCH       0.077000
      9 C13        -27.2960     2.2740   -13.2950 c          1 VCH       0.612100
     10 C16        -27.7110     4.5110   -14.2750 ca         1 VCH       0.011000
     11 C19        -27.2390     7.1960   -14.9760 ca         1 VCH      -0.184300
     12 C20        -26.1950     6.3400   -14.6440 ca         1 VCH      -0.046000
     13 C21        -26.4140     5.0170   -14.2900 ca         1 VCH      -0.150500
     14 C22        -26.9190     8.6320   -15.3780 c3         1 VCH       0.119300
     15 C24        -27.9240     9.6470   -14.7650 c3         1 VCH       0.302500
     16 C35        -23.8870    -3.0420   -16.4010 c3         1 VCH      -0.333100
     17 O3         -28.6030     2.1220   -10.7520 o          1 VCH      -0.598100
     18 N4         -27.7050     0.3680   -11.8030 n          1 VCH      -0.412800
     19 C5         -26.9640    -0.8840   -11.8650 c5         1 VCH       0.162300
     20 C6         -26.8740    -1.1230   -13.3380 ca         1 VCH      -0.108300
     21 O14        -26.1480     2.4220   -12.9380 o          1 VCH      -0.555100
     22 N15        -28.0450     3.1990   -13.9410 ns         1 VCH      -0.136000
     23 C17        -28.7610     5.3580   -14.6320 ca         1 VCH      -0.150500
     24 C18        -28.5320     6.6740   -14.9790 ca         1 VCH      -0.046000
     25 O23        -25.6440     9.0370   -15.0040 oh         1 VCH      -0.622000
     26 F25        -27.5110    10.9020   -14.9320 f          1 VCH      -0.098500
     27 F26        -29.1530     9.5710   -15.2790 f          1 VCH      -0.098500
     28 F27        -28.0230     9.4330   -13.4510 f          1 VCH      -0.098500
     29 C28        -26.9040     8.7110   -16.9210 c3         1 VCH       0.302500
     30 F29        -26.6400     9.9390   -17.3660 f          1 VCH      -0.098500
     31 F30        -28.0710     8.3340   -17.4420 f          1 VCH      -0.098500
     32 F31        -25.9660     7.9010   -17.4050 f          1 VCH      -0.098500
     33 O33        -25.6680    -4.7270   -15.4350 o          1 VCH      -0.519500
     34 O34        -26.1600    -3.5780   -17.6170 o          1 VCH      -0.519500
     35 H1         -27.9980     1.0060    -8.5480 hc         1 VCH       0.065700
     36 H2         -28.0770    -0.6010    -9.2870 hc         1 VCH       0.065700
     37 H3         -26.5640     0.2920    -9.3000 hc         1 VCH       0.065700
     38 H4         -25.8320    -2.9990   -13.4550 ha         1 VCH       0.142000
     39 H5         -26.9850    -1.1850   -17.1870 ha         1 VCH       0.145000
     40 H6         -28.0150     0.6990   -15.9720 ha         1 VCH       0.128000
     41 H7         -29.1030     1.0620   -13.2180 h1         1 VCH       0.085700
     42 H8         -25.1690     6.6840   -14.6590 ha         1 VCH       0.129500
     43 H9         -25.5680     4.3980   -14.0420 ha         1 VCH       0.134500
     44 H10        -23.4680    -2.9270   -15.4030 h1         1 VCH       0.104700
     45 H11        -23.3620    -3.8310   -16.9390 h1         1 VCH       0.104700
     46 H12        -23.8230    -2.1060   -16.9500 h1         1 VCH       0.104700
     47 H13        -27.4940    -1.6940   -11.3560 h1         1 VCH       0.064700
     48 H14        -25.9750    -0.7960   -11.4080 h1         1 VCH       0.064700
     49 H15        -29.0100     2.9510   -14.1050 hn         1 VCH       0.157000
     50 H16        -29.7780     4.9840   -14.6360 ha         1 VCH       0.134500
     51 H17        -29.3920     7.2680   -15.2450 ha         1 VCH       0.129500
     52 H18        -25.4750     8.8160   -14.0790 ho         1 VCH       0.481000
     53 S32        -25.5920    -3.5330   -16.2730 sy         1 VCH       1.055500
@<TRIPOS>BOND
     1     1     2 1   
     2     1    35 1   
     3     1    36 1   
     4     1    37 1   
     5     2    17 2   
     6     2    18 1   
     7     3     4 ar  
     8     3    20 ar  
     9     3    38 1   
    10     4     5 ar  
    11     4    53 1   
    12     5     6 ar  
    13     5    39 1   
    14     6     7 ar  
    15     6    40 1   
    16     7     8 1   
    17     7    20 ar  
    18     8     9 1   
    19     8    18 1   
    20     8    41 1   
    21     9    21 2   
    22     9    22 1   
    23    10    13 ar  
    24    10    22 1   
    25    10    23 ar  
    26    11    12 ar  
    27    11    14 1   
    28    11    24 ar  
    29    12    13 ar  
    30    12    42 1   
    31    13    43 1   
    32    14    15 1   
    33    14    25 1   
    34    14    29 1   
    35    15    26 1   
    36    15    27 1   
    37    15    28 1   
    38    16    44 1   
    39    16    45 1   
    40    16    46 1   
    41    16    53 1   
    42    18    19 1   
    43    19    20 1   
    44    19    47 1   
    45    19    48 1   
    46    22    49 1   
    47    23    24 ar  
    48    23    50 1   
    49    24    51 1   
    50    25    52 1   
    51    29    30 1   
    52    29    31 1   
    53    29    32 1   
    54    33    53 2   
    55    34    53 2   
@<TRIPOS>SUBSTRUCTURE
     1 VCH         1 TEMP              0 ****  ****    0 ROOT
