@<TRIPOS>MOLECULE
VCH
   53    55     1     0     0
SMALL
No Charge or Current Charge


@<TRIPOS>ATOM
      1 C1         -27.2760    -0.2910    -8.9100 c3         1 VCH      -0.173100
      2 C2         -27.7620     0.5910   -10.0600 c          1 VCH       0.615100
      3 C7         -26.4510    -2.0520   -14.1120 ca         1 VCH       0.000000
      4 C8         -26.6590    -1.8780   -15.4990 ca         1 VCH      -0.256500
      5 C9         -27.2930    -0.7060   -15.9740 ca         1 VCH      -0.010000
      6 C10        -27.7170     0.2860   -15.0690 ca         1 VCH      -0.102000
      7 C11        -27.4950     0.1000   -13.6930 ca         1 VCH      -0.048300
      8 C12        -27.8700     1.0410   -12.5680 c5         1 VCH       0.077000
      9 C13        -27.1180     2.4060   -12.6740 c          1 VCH       0.612100
     10 C16        -27.5800     4.5430   -14.0250 ca         1 VCH       0.011000
     11 C19        -27.2250     7.1820   -15.0690 ca         1 VCH      -0.184300
     12 C20        -26.2760     6.6020   -14.1920 ca         1 VCH      -0.046000
     13 C21        -26.4500     5.3070   -13.6760 ca         1 VCH      -0.150500
     14 C22        -26.9820     8.6150   -15.6330 c3         1 VCH       0.119300
     15 C24        -28.3020     9.3590   -16.1100 c3         1 VCH       0.302500
     16 C35        -24.4350    -2.6350   -17.0500 c3         1 VCH      -0.333100
     17 O3         -28.3960     1.6150    -9.8400 o          1 VCH      -0.598100
     18 N4         -27.4580     0.2070   -11.3790 n          1 VCH      -0.412800
     19 C5         -26.7630    -1.0700   -11.7300 c5         1 VCH       0.162300
     20 C6         -26.8810    -1.0480   -13.2300 ca         1 VCH      -0.108300
     21 O14        -26.0680     2.7050   -12.1110 o          1 VCH      -0.555100
     22 N15        -27.8230     3.2270   -13.5460 ns         1 VCH      -0.136000
     23 C17        -28.5200     5.1020   -14.9050 ca         1 VCH      -0.150500
     24 C18        -28.3490     6.3960   -15.4240 ca         1 VCH      -0.046000
     25 O23        -26.4280     9.3950   -14.5430 oh         1 VCH      -0.622000
     26 F25        -28.0810    10.6790   -16.3210 f          1 VCH      -0.098500
     27 F26        -28.7990     8.8560   -17.2650 f          1 VCH      -0.098500
     28 F27        -29.2750     9.2720   -15.1720 f          1 VCH      -0.098500
     29 C28        -25.9160     8.5420   -16.7990 c3         1 VCH       0.302500
     30 F29        -25.6730     9.7580   -17.3440 f          1 VCH      -0.098500
     31 F30        -26.3270     7.7230   -17.7960 f          1 VCH      -0.098500
     32 F31        -24.7290     8.0620   -16.3570 f          1 VCH      -0.098500
     33 O33        -26.0010    -4.4260   -15.9500 o          1 VCH      -0.519500
     34 O34        -26.8830    -3.0220   -17.9010 o          1 VCH      -0.519500
     35 H1         -27.5290     0.1250    -7.9280 hc         1 VCH       0.065700
     36 H2         -27.6880    -1.2980    -9.0320 hc         1 VCH       0.065700
     37 H3         -26.1980    -0.4570    -9.0120 hc         1 VCH       0.065700
     38 H4         -25.9680    -2.9470   -13.7230 ha         1 VCH       0.142000
     39 H5         -27.4610    -0.5590   -17.0410 ha         1 VCH       0.145000
     40 H6         -28.2100     1.1810   -15.4410 ha         1 VCH       0.128000
     41 H7         -28.9520     1.2260   -12.5580 h1         1 VCH       0.085700
     42 H8         -25.3820     7.1530   -13.9050 ha         1 VCH       0.129500
     43 H9         -25.6880     4.9190   -13.0080 ha         1 VCH       0.134500
     44 H10        -23.8560    -2.6230   -16.1210 h1         1 VCH       0.104700
     45 H11        -24.0160    -3.3570   -17.7590 h1         1 VCH       0.104700
     46 H12        -24.4770    -1.6350   -17.4930 h1         1 VCH       0.104700
     47 H13        -27.2700    -1.9470   -11.3050 h1         1 VCH       0.064700
     48 H14        -25.7130    -1.0660   -11.4100 h1         1 VCH       0.064700
     49 H15        -28.6700     2.8140   -13.9130 hn         1 VCH       0.157000
     50 H16        -29.3970     4.5280   -15.1970 ha         1 VCH       0.134500
     51 H17        -29.1070     6.7630   -16.1080 ha         1 VCH       0.129500
     52 H18        -27.0050     9.2470   -13.7620 ho         1 VCH       0.481000
     53 S32        -26.1080    -3.1440   -16.6600 sy         1 VCH       1.055500
@<TRIPOS>BOND
     1     1     2 1   
     2     1    35 1   
     3     1    36 1   
     4     1    37 1   
     5     2    17 2   
     6     2    18 1   
     7     3     4 ar  
     8     3    20 ar  
     9     3    38 1   
    10     4     5 ar  
    11     4    53 1   
    12     5     6 ar  
    13     5    39 1   
    14     6     7 ar  
    15     6    40 1   
    16     7     8 1   
    17     7    20 ar  
    18     8     9 1   
    19     8    18 1   
    20     8    41 1   
    21     9    21 2   
    22     9    22 1   
    23    10    13 ar  
    24    10    22 1   
    25    10    23 ar  
    26    11    12 ar  
    27    11    14 1   
    28    11    24 ar  
    29    12    13 ar  
    30    12    42 1   
    31    13    43 1   
    32    14    15 1   
    33    14    25 1   
    34    14    29 1   
    35    15    26 1   
    36    15    27 1   
    37    15    28 1   
    38    16    44 1   
    39    16    45 1   
    40    16    46 1   
    41    16    53 1   
    42    18    19 1   
    43    19    20 1   
    44    19    47 1   
    45    19    48 1   
    46    22    49 1   
    47    23    24 ar  
    48    23    50 1   
    49    24    51 1   
    50    25    52 1   
    51    29    30 1   
    52    29    31 1   
    53    29    32 1   
    54    33    53 2   
    55    34    53 2   
@<TRIPOS>SUBSTRUCTURE
     1 VCH         1 TEMP              0 ****  ****    0 ROOT
