@<TRIPOS>MOLECULE
VCJ
   45    48     1     0     0
SMALL
No Charge or Current Charge


@<TRIPOS>ATOM
      1 C2          94.1510    94.4300    27.0910 ca         1 VCJ      -0.005625
      2 C5          94.2750    92.5240    25.0240 ca         1 VCJ      -0.157375
      3 C4          93.9200    93.8500    24.7410 ca         1 VCJ       0.257000
      4 C6          94.5710    92.1420    26.3420 ca         1 VCJ      -0.005625
      5 C7          96.7150    92.5490    29.3550 ca         1 VCJ      -0.436500
      6 C1          94.5110    93.0950    27.3830 ca         1 VCJ      -0.436500
      7 C3          93.8570    94.8010    25.7690 ca         1 VCJ      -0.157375
      8 C8          97.5930    92.4580    28.2530 ca         1 VCJ      -0.005625
      9 C9          98.9810    92.4330    28.4660 ca         1 VCJ      -0.157375
     10 C10         99.4930    92.5000    29.7690 ca         1 VCJ       0.257000
     11 C11         98.6270    92.5920    30.8670 ca         1 VCJ      -0.157375
     12 C12         97.2380    92.6170    30.6660 ca         1 VCJ      -0.005625
     13 C13         94.1730    93.7810    30.2920 ca         1 VCJ      -0.436500
     14 C14         92.9470    93.5030    30.9360 ca         1 VCJ      -0.005625
     15 C15         92.4090    94.4300    31.8440 ca         1 VCJ      -0.157375
     16 C16         93.0880    95.6270    32.1110 ca         1 VCJ       0.257000
     17 C17         94.3060    95.9070    31.4770 ca         1 VCJ      -0.157375
     18 C18         94.8520    94.9880    30.5670 ca         1 VCJ      -0.005625
     19 C19         94.1900    90.9140    29.3810 ca         1 VCJ      -0.436500
     20 C20         94.8970    89.9480    30.1310 ca         1 VCJ      -0.005625
     21 C21         94.3410    88.6740    30.3320 ca         1 VCJ      -0.157375
     22 C22         93.0870    88.3620    29.7890 ca         1 VCJ       0.257000
     23 C23         92.3800    89.3150    29.0430 ca         1 VCJ      -0.157375
     24 C24         92.9270    90.5920    28.8360 ca         1 VCJ      -0.005625
     25 F13         92.5660    96.5140    32.9860 f          1 VCJ      -0.140000
     26 F18         92.5560    87.1350    29.9860 f          1 VCJ      -0.140000
     27 F3          93.6360    94.2140    23.4710 f          1 VCJ      -0.140000
     28 F8         100.8300    92.4760    29.9680 f          1 VCJ      -0.140000
     29 H1          94.0940    95.1820    27.8770 ha         1 VCJ       0.129000
     30 H3          94.3200    91.7950    24.2190 ha         1 VCJ       0.158000
     31 H4          94.8460    91.1060    26.5480 ha         1 VCJ       0.129000
     32 H2          93.5800    95.8260    25.5380 ha         1 VCJ       0.158000
     33 H13         97.2140    92.4080    27.2330 ha         1 VCJ       0.129000
     34 H14         99.6630    92.3630    27.6230 ha         1 VCJ       0.158000
     35 H15         99.0360    92.6440    31.8730 ha         1 VCJ       0.158000
     36 H16         96.5760    92.6890    31.5290 ha         1 VCJ       0.129000
     37 H5          92.4060    92.5770    30.7430 ha         1 VCJ       0.129000
     38 H6          91.4660    94.2220    32.3430 ha         1 VCJ       0.158000
     39 H7          94.8240    96.8380    31.6930 ha         1 VCJ       0.158000
     40 H8          95.8010    95.2200    30.0810 ha         1 VCJ       0.129000
     41 H9          95.8740    90.1720    30.5580 ha         1 VCJ       0.129000
     42 H10         94.8800    87.9270    30.9070 ha         1 VCJ       0.158000
     43 H11         91.4090    89.0620    28.6260 ha         1 VCJ       0.158000
     44 H12         92.3660    91.3240    28.2540 ha         1 VCJ       0.129000
     45 P1          94.8970    92.5850    29.1030 p5         1 VCJ       1.284000
@<TRIPOS>BOND
     1     1     6 ar  
     2     1     7 ar  
     3     1    29 1   
     4     2     3 ar  
     5     2     4 ar  
     6     2    30 1   
     7     3     7 ar  
     8     3    27 1   
     9     4     6 ar  
    10     4    31 1   
    11     5     8 ar  
    12     5    12 ar  
    13     5    45 1   
    14     6    45 1   
    15     7    32 1   
    16     8     9 ar  
    17     8    33 1   
    18     9    10 ar  
    19     9    34 1   
    20    10    11 ar  
    21    10    28 1   
    22    11    12 ar  
    23    11    35 1   
    24    12    36 1   
    25    13    14 ar  
    26    13    18 ar  
    27    13    45 1   
    28    14    15 ar  
    29    14    37 1   
    30    15    16 ar  
    31    15    38 1   
    32    16    17 ar  
    33    16    25 1   
    34    17    18 ar  
    35    17    39 1   
    36    18    40 1   
    37    19    20 ar  
    38    19    24 ar  
    39    19    45 1   
    40    20    21 ar  
    41    20    41 1   
    42    21    22 ar  
    43    21    42 1   
    44    22    23 ar  
    45    22    26 1   
    46    23    24 ar  
    47    23    43 1   
    48    24    44 1   
@<TRIPOS>SUBSTRUCTURE
     1 VCJ         1 TEMP              0 ****  ****    0 ROOT
