@<TRIPOS>MOLECULE
VCJ
   45    48     1     0     0
SMALL
bcc


@<TRIPOS>ATOM
      1 C2          94.0670    94.3810    27.1410 ca         1 VCJ      -0.023625
      2 C5          94.3980    92.5350    25.0760 ca         1 VCJ      -0.175375
      3 C4          93.9640    93.8260    24.8310 ca         1 VCJ       0.221900
      4 C6          94.6680    92.1670    26.3810 ca         1 VCJ      -0.023625
      5 C7          96.6750    92.5660    29.3400 ca         1 VCJ      -0.436500
      6 C1          94.5080    93.0890    27.4180 ca         1 VCJ      -0.436500
      7 C3          93.7920    94.7570    25.8380 ca         1 VCJ      -0.175375
      8 C8          97.5510    92.5390    28.2560 ca         1 VCJ      -0.023625
      9 C9          98.9170    92.4760    28.4710 ca         1 VCJ      -0.175375
     10 C10         99.3830    92.4380    29.7720 ca         1 VCJ       0.221900
     11 C11         98.5370    92.4700    30.8670 ca         1 VCJ      -0.175375
     12 C12         97.1740    92.5370    30.6440 ca         1 VCJ      -0.023625
     13 C13         94.2010    93.7470    30.2680 ca         1 VCJ      -0.436500
     14 C14         93.0270    93.4450    30.9540 ca         1 VCJ      -0.023625
     15 C15         92.4830    94.3640    31.8360 ca         1 VCJ      -0.175375
     16 C16         93.1290    95.5730    32.0130 ca         1 VCJ       0.221900
     17 C17         94.2980    95.8980    31.3470 ca         1 VCJ      -0.175375
     18 C18         94.8360    94.9740    30.4710 ca         1 VCJ      -0.023625
     19 C19         94.2170    90.9540    29.3560 ca         1 VCJ      -0.436500
     20 C20         94.9210    89.9970    30.0850 ca         1 VCJ      -0.023625
     21 C21         94.3620    88.7530    30.3190 ca         1 VCJ      -0.175375
     22 C22         93.1020    88.4880    29.8170 ca         1 VCJ       0.221900
     23 C23         92.3820    89.4160    29.0860 ca         1 VCJ      -0.175375
     24 C24         92.9470    90.6560    28.8540 ca         1 VCJ      -0.023625
     25 F13         92.6120    96.4580    32.8640 f          1 VCJ      -0.104900
     26 F18         92.5600    87.2920    30.0420 f          1 VCJ      -0.104900
     27 F3          93.6940    94.1820    23.5750 f          1 VCJ      -0.104900
     28 F8         100.6980    92.3740    29.9800 f          1 VCJ      -0.104900
     29 H1          93.9260    95.1070    27.9310 ha         1 VCJ       0.147000
     30 H3          94.5170    91.8290    24.2660 ha         1 VCJ       0.176000
     31 H4          94.9980    91.1550    26.5790 ha         1 VCJ       0.147000
     32 H2          93.4450    95.7550    25.6110 ha         1 VCJ       0.176000
     33 H13         97.1860    92.5760    27.2390 ha         1 VCJ       0.147000
     34 H14         99.6080    92.4590    27.6390 ha         1 VCJ       0.176000
     35 H15         98.9330    92.4460    31.8730 ha         1 VCJ       0.176000
     36 H16         96.5080    92.5700    31.4970 ha         1 VCJ       0.147000
     37 H5          92.5300    92.4950    30.8220 ha         1 VCJ       0.147000
     38 H6          91.5750    94.1380    32.3770 ha         1 VCJ       0.176000
     39 H7          94.7800    96.8520    31.5120 ha         1 VCJ       0.176000
     40 H8          95.7560    95.2200    29.9550 ha         1 VCJ       0.147000
     41 H9          95.9090    90.2050    30.4720 ha         1 VCJ       0.147000
     42 H10         94.9010    88.0030    30.8810 ha         1 VCJ       0.176000
     43 H11         91.4000    89.1750    28.7010 ha         1 VCJ       0.176000
     44 H12         92.3900    91.3830    28.2760 ha         1 VCJ       0.147000
     45 P1          94.9010    92.5900    29.0930 p5         1 VCJ       1.284000
@<TRIPOS>BOND
     1     1     6 ar  
     2     1     7 ar  
     3     1    29 1   
     4     2     3 ar  
     5     2     4 ar  
     6     2    30 1   
     7     3     7 ar  
     8     3    27 1   
     9     4     6 ar  
    10     4    31 1   
    11     5     8 ar  
    12     5    12 ar  
    13     5    45 1   
    14     6    45 1   
    15     7    32 1   
    16     8     9 ar  
    17     8    33 1   
    18     9    10 ar  
    19     9    34 1   
    20    10    11 ar  
    21    10    28 1   
    22    11    12 ar  
    23    11    35 1   
    24    12    36 1   
    25    13    14 ar  
    26    13    18 ar  
    27    13    45 1   
    28    14    15 ar  
    29    14    37 1   
    30    15    16 ar  
    31    15    38 1   
    32    16    17 ar  
    33    16    25 1   
    34    17    18 ar  
    35    17    39 1   
    36    18    40 1   
    37    19    20 ar  
    38    19    24 ar  
    39    19    45 1   
    40    20    21 ar  
    41    20    41 1   
    42    21    22 ar  
    43    21    42 1   
    44    22    23 ar  
    45    22    26 1   
    46    23    24 ar  
    47    23    43 1   
    48    24    44 1   
@<TRIPOS>SUBSTRUCTURE
     1 VCJ         1 TEMP              0 ****  ****    0 ROOT
