@<TRIPOS>MOLECULE
VCK
   58    59     1     0     0
SMALL
No Charge or Current Charge


@<TRIPOS>ATOM
      1 C1         -25.0440    -1.8780   -17.7460 c3         1 VCK      -0.070100
      2 C2         -24.2100    -2.9290   -16.9730 c3         1 VCK      -0.289400
      3 O4         -26.3110    -4.4130   -16.3490 o          1 VCK      -0.520500
      4 O5         -24.1660    -4.6410   -14.9740 o          1 VCK      -0.520500
      5 C7         -26.9960    -1.9590   -14.7170 ca         1 VCK      -0.013000
      6 C8         -27.4170    -0.9260   -13.8620 ca         1 VCK      -0.117500
      7 C9         -26.5540    -0.4140   -12.8730 ca         1 VCK      -0.040300
      8 C10        -25.2540    -0.9500   -12.7580 ca         1 VCK      -0.117500
      9 C11        -24.8270    -1.9830   -13.6090 ca         1 VCK      -0.013000
     10 C12        -27.0310     0.7170   -11.9560 c3         1 VCK      -0.084400
     11 C13        -26.7140     0.4450   -10.4540 c3         1 VCK      -0.153400
     12 C14        -27.5260     1.3590    -9.5310 c          1 VCK       0.597100
     13 C21        -27.3150     4.2950   -13.4030 ca         1 VCK       0.018000
     14 C22        -28.5120     4.9780   -13.6720 ca         1 VCK      -0.156000
     15 C24        -27.2830     6.9460   -14.4730 ca         1 VCK      -0.189300
     16 C27        -27.2210     8.3830   -15.0780 c3         1 VCK       0.120300
     17 O28        -26.1120     9.0520   -14.4260 oh         1 VCK      -0.623000
     18 C33        -28.5160     9.2610   -14.8040 c3         1 VCK       0.302500
     19 S3         -25.1410    -3.8110   -15.6940 sy         1 VCK       1.038500
     20 C6         -25.6980    -2.4940   -14.5920 ca         1 VCK      -0.256500
     21 O15        -27.2870     2.5510    -9.4160 o          1 VCK      -0.606100
     22 N16        -28.5310     0.7420    -8.8240 ns         1 VCK      -0.503900
     23 C17        -29.4200     1.4290    -7.8840 c3         1 VCK       0.094300
     24 C18        -26.4520     2.0720   -12.4370 c          1 VCK       0.634100
     25 O19        -25.2460     2.2960   -12.4350 o          1 VCK      -0.570100
     26 N20        -27.4110     2.9790   -12.8720 ns         1 VCK      -0.134000
     27 C23        -28.5020     6.2800   -14.2010 ca         1 VCK      -0.044500
     28 C25        -26.0820     6.2410   -14.2150 ca         1 VCK      -0.044500
     29 C26        -26.0960     4.9400   -13.6870 ca         1 VCK      -0.156000
     30 C29        -26.9170     8.2840   -16.6260 c3         1 VCK       0.302500
     31 F30        -25.7270     7.6830   -16.8630 f          1 VCK      -0.098833
     32 F31        -27.8610     7.5590   -17.2720 f          1 VCK      -0.098833
     33 F32        -26.8670     9.5040   -17.2150 f          1 VCK      -0.098833
     34 F34        -28.3040    10.5670   -15.0940 f          1 VCK      -0.098833
     35 F35        -29.5830     8.8650   -15.5380 f          1 VCK      -0.098833
     36 F36        -28.8740     9.2050   -13.4980 f          1 VCK      -0.098833
     37 H1         -24.4300    -1.4010   -18.5200 hc         1 VCK       0.051367
     38 H2         -25.9070    -2.3430   -18.2390 hc         1 VCK       0.051367
     39 H3         -25.4100    -1.0910   -17.0760 hc         1 VCK       0.051367
     40 H4         -23.8260    -3.6890   -17.6620 h1         1 VCK       0.100200
     41 H5         -23.3630    -2.4460   -16.4720 h1         1 VCK       0.100200
     42 H6         -27.6820    -2.3360   -15.4740 ha         1 VCK       0.139500
     43 H7         -28.4220    -0.5240   -13.9750 ha         1 VCK       0.121500
     44 H8         -24.5630    -0.5630   -12.0130 ha         1 VCK       0.121500
     45 H9         -23.8180    -2.3790   -13.5030 ha         1 VCK       0.139500
     46 H10        -28.1240     0.7760   -12.0390 hc         1 VCK       0.074700
     47 H11        -26.9550    -0.6010   -10.2320 hc         1 VCK       0.075700
     48 H12        -25.6480     0.6180   -10.2660 hc         1 VCK       0.075700
     49 H13        -29.4670     4.4970   -13.4720 ha         1 VCK       0.135500
     50 H14        -26.2160     8.9040   -13.4610 ho         1 VCK       0.481000
     51 H15        -28.6570    -0.2530    -8.9730 hn         1 VCK       0.315500
     52 H16        -30.1330     0.7110    -7.4600 h1         1 VCK       0.043033
     53 H17        -28.8280     1.8730    -7.0720 h1         1 VCK       0.043033
     54 H18        -29.9710     2.2210    -8.4070 h1         1 VCK       0.043033
     55 H19        -28.3620     2.6410   -12.8010 hn         1 VCK       0.155000
     56 H20        -29.4630     6.7460   -14.3950 ha         1 VCK       0.128000
     57 H21        -25.1170     6.6980   -14.4310 ha         1 VCK       0.128000
     58 H22        -25.1430     4.4510   -13.5140 ha         1 VCK       0.135500
@<TRIPOS>BOND
     1     1     2 1   
     2     1    37 1   
     3     1    38 1   
     4     1    39 1   
     5     2    19 1   
     6     2    40 1   
     7     2    41 1   
     8     3    19 2   
     9     4    19 2   
    10     5     6 ar  
    11     5    20 ar  
    12     5    42 1   
    13     6     7 ar  
    14     6    43 1   
    15     7     8 ar  
    16     7    10 1   
    17     8     9 ar  
    18     8    44 1   
    19     9    20 ar  
    20     9    45 1   
    21    10    11 1   
    22    10    24 1   
    23    10    46 1   
    24    11    12 1   
    25    11    47 1   
    26    11    48 1   
    27    12    21 2   
    28    12    22 1   
    29    13    14 ar  
    30    13    26 1   
    31    13    29 ar  
    32    14    27 ar  
    33    14    49 1   
    34    15    16 1   
    35    15    27 ar  
    36    15    28 ar  
    37    16    17 1   
    38    16    18 1   
    39    16    30 1   
    40    17    50 1   
    41    18    34 1   
    42    18    35 1   
    43    18    36 1   
    44    19    20 1   
    45    22    23 1   
    46    22    51 1   
    47    23    52 1   
    48    23    53 1   
    49    23    54 1   
    50    24    25 2   
    51    24    26 1   
    52    26    55 1   
    53    27    56 1   
    54    28    29 ar  
    55    28    57 1   
    56    29    58 1   
    57    30    31 1   
    58    30    32 1   
    59    30    33 1   
@<TRIPOS>SUBSTRUCTURE
     1 VCK         1 TEMP              0 ****  ****    0 ROOT
