@<TRIPOS>MOLECULE
VCK
   58    59     1     0     0
SMALL
abcg2


@<TRIPOS>ATOM
      1 C1         -24.6810    -0.4950   -17.5200 c3         1 VCK      -0.070100
      2 C2         -24.0860    -1.7560   -16.9270 c3         1 VCK      -0.289400
      3 O4         -26.3720    -3.0800   -17.1520 o          1 VCK      -0.520500
      4 O5         -24.6110    -3.9700   -15.5860 o          1 VCK      -0.520500
      5 C7         -27.2500    -1.2900   -15.0030 ca         1 VCK      -0.013000
      6 C8         -27.7640    -0.5300   -13.9650 ca         1 VCK      -0.117500
      7 C9         -27.0380    -0.3250   -12.7950 ca         1 VCK      -0.040300
      8 C10        -25.7800    -0.9130   -12.6740 ca         1 VCK      -0.117500
      9 C11        -25.2610    -1.6880   -13.6960 ca         1 VCK      -0.013000
     10 C12        -27.5990     0.5890   -11.7270 c3         1 VCK      -0.084400
     11 C13        -27.2690     0.1430   -10.3120 c3         1 VCK      -0.153400
     12 C14        -27.9450     1.0240    -9.2800 c          1 VCK       0.597100
     13 C21        -27.5480     3.9710   -13.4040 ca         1 VCK       0.018000
     14 C22        -28.6010     4.6010   -14.0710 ca         1 VCK      -0.156000
     15 C24        -27.1680     6.4190   -14.7490 ca         1 VCK      -0.189300
     16 C27        -26.8880     7.7280   -15.4810 c3         1 VCK       0.120300
     17 O28        -25.7170     8.3480   -15.0590 oh         1 VCK      -0.623000
     18 C33        -28.0400     8.7560   -15.3020 c3         1 VCK       0.302500
     19 S3         -25.3100    -2.8310   -16.1780 sy         1 VCK       1.038500
     20 C6         -25.9950    -1.8610   -14.8610 ca         1 VCK      -0.256500
     21 O15        -28.3780     2.1350    -9.5590 o          1 VCK      -0.606100
     22 N16        -28.0120     0.5040    -8.0490 ns         1 VCK      -0.503900
     23 C17        -28.5830     1.2140    -6.9290 c3         1 VCK       0.094300
     24 C18        -27.0250     1.9740   -12.0220 c          1 VCK       0.634100
     25 O19        -25.9080     2.2880   -11.6630 o          1 VCK      -0.570100
     26 N20        -27.8280     2.7510   -12.7950 ns         1 VCK      -0.134000
     27 C23        -28.4160     5.7970   -14.7350 ca         1 VCK      -0.044500
     28 C25        -26.1200     5.7800   -14.0940 ca         1 VCK      -0.044500
     29 C26        -26.2950     4.5810   -13.4210 ca         1 VCK      -0.156000
     30 C29        -26.6240     7.4190   -16.9730 c3         1 VCK       0.302500
     31 F30        -25.5660     6.6200   -17.0830 f          1 VCK      -0.098833
     32 F31        -27.6570     6.8020   -17.5450 f          1 VCK      -0.098833
     33 F32        -26.3680     8.5170   -17.6840 f          1 VCK      -0.098833
     34 F34        -27.6900     9.9590   -15.7480 f          1 VCK      -0.098833
     35 F35        -29.1690     8.4200   -15.9300 f          1 VCK      -0.098833
     36 F36        -28.3230     8.8830   -14.0030 f          1 VCK      -0.098833
     37 H1         -23.8850     0.0890   -17.9780 hc         1 VCK       0.051367
     38 H2         -25.4150    -0.7210   -18.2920 hc         1 VCK       0.051367
     39 H3         -25.1520     0.1280   -16.7610 hc         1 VCK       0.051367
     40 H4         -23.6070    -2.3780   -17.6880 h1         1 VCK       0.100200
     41 H5         -23.3470    -1.5420   -16.1540 h1         1 VCK       0.100200
     42 H6         -27.8290    -1.4310   -15.9060 ha         1 VCK       0.139500
     43 H7         -28.7480    -0.0880   -14.0740 ha         1 VCK       0.121500
     44 H8         -25.1900    -0.7810   -11.7770 ha         1 VCK       0.121500
     45 H9         -24.2860    -2.1440   -13.5780 ha         1 VCK       0.139500
     46 H10        -28.6860     0.6080   -11.8420 hc         1 VCK       0.074700
     47 H11        -27.5710    -0.8980   -10.1780 hc         1 VCK       0.075700
     48 H12        -26.1920     0.1770   -10.1290 hc         1 VCK       0.075700
     49 H13        -29.5840     4.1460   -14.0760 ha         1 VCK       0.135500
     50 H14        -25.6810     8.3800   -14.0940 ho         1 VCK       0.481000
     51 H15        -27.6510    -0.4220    -7.8900 hn         1 VCK       0.315500
     52 H16        -28.5340     0.5720    -6.0540 h1         1 VCK       0.043033
     53 H17        -28.0360     2.1320    -6.7100 h1         1 VCK       0.043033
     54 H18        -29.6280     1.4720    -7.1050 h1         1 VCK       0.043033
     55 H19        -28.7610     2.4020   -12.9580 hn         1 VCK       0.155000
     56 H20        -29.2740     6.2190   -15.2350 ha         1 VCK       0.128000
     57 H21        -25.1260     6.2050   -14.0950 ha         1 VCK       0.128000
     58 H22        -25.4490     4.1330   -12.9280 ha         1 VCK       0.135500
@<TRIPOS>BOND
     1     1     2 1   
     2     1    37 1   
     3     1    38 1   
     4     1    39 1   
     5     2    19 1   
     6     2    40 1   
     7     2    41 1   
     8     3    19 2   
     9     4    19 2   
    10     5     6 ar  
    11     5    20 ar  
    12     5    42 1   
    13     6     7 ar  
    14     6    43 1   
    15     7     8 ar  
    16     7    10 1   
    17     8     9 ar  
    18     8    44 1   
    19     9    20 ar  
    20     9    45 1   
    21    10    11 1   
    22    10    24 1   
    23    10    46 1   
    24    11    12 1   
    25    11    47 1   
    26    11    48 1   
    27    12    21 2   
    28    12    22 1   
    29    13    14 ar  
    30    13    26 1   
    31    13    29 ar  
    32    14    27 ar  
    33    14    49 1   
    34    15    16 1   
    35    15    27 ar  
    36    15    28 ar  
    37    16    17 1   
    38    16    18 1   
    39    16    30 1   
    40    17    50 1   
    41    18    34 1   
    42    18    35 1   
    43    18    36 1   
    44    19    20 1   
    45    22    23 1   
    46    22    51 1   
    47    23    52 1   
    48    23    53 1   
    49    23    54 1   
    50    24    25 2   
    51    24    26 1   
    52    26    55 1   
    53    27    56 1   
    54    28    29 ar  
    55    28    57 1   
    56    29    58 1   
    57    30    31 1   
    58    30    32 1   
    59    30    33 1   
@<TRIPOS>SUBSTRUCTURE
     1 VCK         1 TEMP              0 ****  ****    0 ROOT
