@<TRIPOS>MOLECULE
VCL
   37    38     1     0     0
SMALL
abcg2


@<TRIPOS>ATOM
      1 C15        137.2990   145.9990   109.8420 cc         1 VCL       0.235300
      2 C16        137.2500   144.7100   110.2980 cd         1 VCL      -0.230000
      3 C18        137.7690   144.7440   108.1740 cd         1 VCL       0.390400
      4 C01        141.1030   146.1050   106.9110 ca         1 VCL      -0.097000
      5 C02        141.6550   145.9170   105.6550 ca         1 VCL      -0.107500
      6 C03        142.9920   145.5580   105.5540 ca         1 VCL       0.115000
      7 C04        143.7680   145.3870   106.6870 ca         1 VCL      -0.107500
      8 C05        143.1960   145.5790   107.9390 ca         1 VCL      -0.097000
      9 C06        141.8620   145.9400   108.0690 ca         1 VCL      -0.069300
     10 C07        141.2030   146.1680   109.4090 c3         1 VCL       0.189100
     11 N08        142.1120   146.0160   110.5000 n2         1 VCL      -0.708900
     12 C09        142.1250   146.8040   111.4940 c2         1 VCL       0.741100
     13 N10        143.0810   146.7290   112.4450 nv         1 VCL      -1.062200
     14 S11        140.9720   148.1510   111.8320 ss         1 VCL      -0.467200
     15 C12        139.3430   147.3270   111.7410 c3         1 VCL       0.082600
     16 C13        138.3870   148.0520   110.8090 c3         1 VCL      -0.068400
     17 C14        137.0890   147.2630   110.6070 c3         1 VCL      -0.091700
     18 N17        137.5500   143.9270   109.2200 na         1 VCL      -0.297500
     19 N19        137.6270   146.0020   108.5110 nc         1 VCL      -0.682000
     20 H1         137.0300   144.3010   111.2690 h4         1 VCL       0.158000
     21 H2         138.0240   144.3750   107.1930 h5         1 VCL       0.058100
     22 H3         140.0600   146.3890   106.9920 ha         1 VCL       0.130000
     23 H4         141.0530   146.0530   104.7660 ha         1 VCL       0.125500
     24 H5         144.8100   145.1080   106.6020 ha         1 VCL       0.125500
     25 H6         143.8040   145.4470   108.8240 ha         1 VCL       0.130000
     26 H7         140.7260   147.1570   109.3820 h1         1 VCL       0.055700
     27 H8         140.3790   145.4490   109.5020 h1         1 VCL       0.055700
     28 H10        143.9190   146.2050   112.2570 hn         1 VCL       0.495500
     29 H11        139.4980   146.2940   111.4290 h1         1 VCL       0.067700
     30 H12        138.9390   147.2960   112.7530 h1         1 VCL       0.067700
     31 H13        138.8580   148.2190   109.8380 hc         1 VCL       0.060200
     32 H14        138.1540   149.0370   111.2180 hc         1 VCL       0.060200
     33 H15        136.3750   147.8980   110.0760 hc         1 VCL       0.052200
     34 H16        136.6380   147.0350   111.5760 hc         1 VCL       0.052200
     35 H17        137.5970   142.9210   109.2090 hn         1 VCL       0.355000
     36 H9         143.0840   147.3520   113.2320 hn         1 VCL       0.495500
     37 CL1        143.7000   145.3240   103.9860 cl         1 VCL      -0.215000
@<TRIPOS>BOND
     1     1     2 2   
     2     1    17 1   
     3     1    19 1   
     4     2    18 1   
     5     2    20 1   
     6     3    18 1   
     7     3    19 2   
     8     3    21 1   
     9     4     5 ar  
    10     4     9 ar  
    11     4    22 1   
    12     5     6 ar  
    13     5    23 1   
    14     6     7 ar  
    15     6    37 1   
    16     7     8 ar  
    17     7    24 1   
    18     8     9 ar  
    19     8    25 1   
    20     9    10 1   
    21    10    11 1   
    22    10    26 1   
    23    10    27 1   
    24    11    12 2   
    25    12    13 1   
    26    12    14 1   
    27    13    28 1   
    28    13    36 1   
    29    14    15 1   
    30    15    16 1   
    31    15    29 1   
    32    15    30 1   
    33    16    17 1   
    34    16    31 1   
    35    16    32 1   
    36    17    33 1   
    37    17    34 1   
    38    18    35 1   
@<TRIPOS>SUBSTRUCTURE
     1 VCL         1 TEMP              0 ****  ****    0 ROOT
