@<TRIPOS>MOLECULE
VCL
   37    38     1     0     0
SMALL
No Charge or Current Charge


@<TRIPOS>ATOM
      1 C15        136.5410   145.8160   110.5040 cc         1 VCL       0.235300
      2 C16        136.8520   144.5270   110.8380 cd         1 VCL      -0.230000
      3 C18        136.0960   144.6620   108.7390 cd         1 VCL       0.390400
      4 C01        142.6810   146.9020   107.0230 ca         1 VCL      -0.097000
      5 C02        143.5230   146.8550   105.8970 ca         1 VCL      -0.107500
      6 C03        144.2000   145.6680   105.5760 ca         1 VCL       0.115000
      7 C04        144.0390   144.5260   106.3780 ca         1 VCL      -0.107500
      8 C05        143.1970   144.5720   107.5050 ca         1 VCL      -0.097000
      9 C06        142.5130   145.7600   107.8320 ca         1 VCL      -0.069300
     10 C07        141.5980   145.8120   109.0490 c3         1 VCL       0.189100
     11 N08        142.3470   146.2570   110.2370 n2         1 VCL      -0.708900
     12 C09        142.0220   147.2530   110.9540 c2         1 VCL       0.741100
     13 N10        142.7980   147.7090   111.9440 nv         1 VCL      -1.062200
     14 S11        140.6330   148.3260   110.7460 ss         1 VCL      -0.467200
     15 C12        139.2350   147.1970   111.1810 c3         1 VCL       0.082600
     16 C13        137.8860   147.9250   111.0160 c3         1 VCL      -0.068400
     17 C14        136.6660   147.0430   111.3680 c3         1 VCL      -0.091700
     18 N17        136.5670   143.7870   109.7000 na         1 VCL      -0.297500
     19 N19        136.0780   145.8970   109.2220 nc         1 VCL      -0.682000
     20 H1         137.2400   144.1060   111.7590 h4         1 VCL       0.158000
     21 H2         135.7970   144.3370   107.7490 h5         1 VCL       0.058100
     22 H3         142.1600   147.8250   107.2690 ha         1 VCL       0.130000
     23 H4         143.6500   147.7380   105.2750 ha         1 VCL       0.125500
     24 H5         144.5660   143.6090   106.1280 ha         1 VCL       0.125500
     25 H6         143.0790   143.6850   108.1240 ha         1 VCL       0.130000
     26 H7         140.7520   146.4680   108.8100 h1         1 VCL       0.055700
     27 H8         141.1790   144.8110   109.2200 h1         1 VCL       0.055700
     28 H10        143.7570   147.4100   111.8230 hn         1 VCL       0.495500
     29 H11        139.2610   146.3140   110.5300 h1         1 VCL       0.067700
     30 H12        139.3540   146.8620   112.2200 h1         1 VCL       0.067700
     31 H13        137.7900   148.2780   109.9820 hc         1 VCL       0.060200
     32 H14        137.8790   148.8150   111.6570 hc         1 VCL       0.060200
     33 H15        135.7550   147.6460   111.2790 hc         1 VCL       0.052200
     34 H16        136.7330   146.7440   112.4210 hc         1 VCL       0.052200
     35 H17        136.6730   142.7860   109.5750 hn         1 VCL       0.355000
     36 H9         142.6810   148.7010   112.0980 hn         1 VCL       0.495500
     37 Cl1        145.2530   145.6100   104.1680 cl         1 VCL      -0.215000
@<TRIPOS>BOND
     1     1     2 2   
     2     1    17 1   
     3     1    19 1   
     4     2    18 1   
     5     2    20 1   
     6     3    18 1   
     7     3    19 2   
     8     3    21 1   
     9     4     5 ar  
    10     4     9 ar  
    11     4    22 1   
    12     5     6 ar  
    13     5    23 1   
    14     6     7 ar  
    15     6    37 1   
    16     7     8 ar  
    17     7    24 1   
    18     8     9 ar  
    19     8    25 1   
    20     9    10 1   
    21    10    11 1   
    22    10    26 1   
    23    10    27 1   
    24    11    12 2   
    25    12    13 1   
    26    12    14 1   
    27    13    28 1   
    28    13    36 1   
    29    14    15 1   
    30    15    16 1   
    31    15    29 1   
    32    15    30 1   
    33    16    17 1   
    34    16    31 1   
    35    16    32 1   
    36    17    33 1   
    37    17    34 1   
    38    18    35 1   
@<TRIPOS>SUBSTRUCTURE
     1 VCL         1 TEMP              0 ****  ****    0 ROOT
