@<TRIPOS>MOLECULE
VCN
   38    40     1     0     0
SMALL
abcg2


@<TRIPOS>ATOM
      1 C1         -43.5830   -24.1590     9.7050 c          1 VCN       0.598300
      2 C10        -43.3890   -20.7780    11.1270 ca         1 VCN      -0.118600
      3 C11        -43.0990   -19.3860    10.6350 c          1 VCN       0.606700
      4 C12        -41.5480   -17.5730    10.2360 c3         1 VCN       0.104000
      5 C13        -41.4690   -17.4310     8.7190 c3         1 VCN      -0.112600
      6 C14        -40.7140   -19.7200    11.2330 c3         1 VCN       0.104000
      7 C15        -39.7010   -20.1520    10.1790 c3         1 VCN      -0.112600
      8 C16        -43.7780   -20.9650    12.4620 ca         1 VCN      -0.065000
      9 C17        -44.1200   -22.2190    12.9520 ca         1 VCN      -0.123000
     10 C18        -44.0850   -23.3350    12.1130 ca         1 VCN      -0.032000
     11 C2         -43.7090   -23.1500    10.7980 ca         1 VCN      -0.181600
     12 C3         -43.3650   -21.8830    10.2900 cp         1 VCN       0.017000
     13 C4         -43.0220   -22.0320     8.8550 cp         1 VCN      -0.018000
     14 C5         -42.6400   -21.1080     7.8970 ca         1 VCN      -0.087000
     15 C6         -42.3720   -21.5610     6.6010 ca         1 VCN      -0.090000
     16 C7         -42.4870   -22.9070     6.2640 ca         1 VCN      -0.118000
     17 C8         -42.8820   -23.8400     7.2260 ca         1 VCN      -0.042000
     18 C9         -43.1440   -23.3890     8.5070 ca         1 VCN      -0.177600
     19 N1         -41.8310   -18.9410    10.6900 n          1 VCN      -0.410800
     20 O1         -43.7940   -25.3550     9.7800 o          1 VCN      -0.496100
     21 O2         -44.0350   -18.7000    10.2080 o          1 VCN      -0.597100
     22 H6         -40.6040   -17.2800    10.6940 h1         1 VCN       0.052200
     23 H5         -42.3270   -16.9200    10.6300 h1         1 VCN       0.052200
     24 H8         -41.2410   -16.3940     8.4630 hc         1 VCN       0.044033
     25 H9         -40.6890   -18.0660     8.3000 hc         1 VCN       0.044033
     26 H7         -42.4190   -17.6940     8.2550 hc         1 VCN       0.044033
     27 H11        -41.1170   -20.5940    11.7360 h1         1 VCN       0.052200
     28 H10        -40.2250   -19.1060    11.9930 h1         1 VCN       0.052200
     29 H13        -38.9110   -20.7350    10.6560 hc         1 VCN       0.044033
     30 H14        -40.1720   -20.7710     9.4150 hc         1 VCN       0.044033
     31 H12        -39.2360   -19.2940     9.6920 hc         1 VCN       0.044033
     32 H15        -43.8030   -20.1080    13.1240 ha         1 VCN       0.123000
     33 H16        -44.4110   -22.3270    13.9880 ha         1 VCN       0.123000
     34 H17        -44.3430   -24.3200    12.4820 ha         1 VCN       0.134000
     35 H1         -42.5420   -20.0580     8.1270 ha         1 VCN       0.131000
     36 H2         -42.0680   -20.8470     5.8460 ha         1 VCN       0.117000
     37 H3         -42.2740   -23.2290     5.2540 ha         1 VCN       0.120000
     38 H4         -42.9800   -24.8890     6.9790 ha         1 VCN       0.132000
@<TRIPOS>BOND
     1     1    11 1   
     2     1    18 1   
     3     1    20 2   
     4     2     3 1   
     5     2     8 ar  
     6     2    12 ar  
     7     3    19 1   
     8     3    21 2   
     9     4     5 1   
    10     4    19 1   
    11     4    22 1   
    12     4    23 1   
    13     5    24 1   
    14     5    25 1   
    15     5    26 1   
    16     6     7 1   
    17     6    19 1   
    18     6    27 1   
    19     6    28 1   
    20     7    29 1   
    21     7    30 1   
    22     7    31 1   
    23     8     9 ar  
    24     8    32 1   
    25     9    10 ar  
    26     9    33 1   
    27    10    11 ar  
    28    10    34 1   
    29    11    12 ar  
    30    12    13 1   
    31    13    14 ar  
    32    13    18 ar  
    33    14    15 ar  
    34    14    35 1   
    35    15    16 ar  
    36    15    36 1   
    37    16    17 ar  
    38    16    37 1   
    39    17    18 ar  
    40    17    38 1   
@<TRIPOS>SUBSTRUCTURE
     1 VCN         1 TEMP              0 ****  ****    0 ROOT
