@<TRIPOS>MOLECULE
VCN
   38    40     1     0     0
SMALL
No Charge or Current Charge


@<TRIPOS>ATOM
      1 C1         -43.4020   -24.1230     9.6860 c          1 VCN       0.598300
      2 C10        -43.4620   -20.7640    11.1560 ca         1 VCN      -0.118600
      3 C11        -43.2180   -19.3950    10.5930 c          1 VCN       0.606700
      4 C12        -41.6080   -17.5100    10.1550 c3         1 VCN       0.104000
      5 C13        -41.2020   -17.4120     8.6740 c3         1 VCN      -0.112600
      6 C14        -40.7930   -19.6240    11.2970 c3         1 VCN       0.104000
      7 C15        -39.9480   -20.5020    10.3570 c3         1 VCN      -0.112600
      8 C16        -43.7830   -20.9660    12.5170 ca         1 VCN      -0.065000
      9 C17        -43.9930   -22.2720    13.0150 ca         1 VCN      -0.123000
     10 C18        -43.8890   -23.3880    12.1610 ca         1 VCN      -0.032000
     11 C2         -43.5800   -23.1540    10.8140 ca         1 VCN      -0.181600
     12 C3         -43.3700   -21.8750    10.2800 cp         1 VCN       0.017000
     13 C4         -43.0670   -21.9910     8.8280 cp         1 VCN      -0.018000
     14 C5         -42.7920   -21.0140     7.8460 ca         1 VCN      -0.087000
     15 C6         -42.5280   -21.4240     6.5220 ca         1 VCN      -0.090000
     16 C7         -42.5410   -22.7950     6.1730 ca         1 VCN      -0.118000
     17 C8         -42.8200   -23.7760     7.1450 ca         1 VCN      -0.042000
     18 C9         -43.0770   -23.3400     8.4520 ca         1 VCN      -0.177600
     19 N1         -41.8910   -18.8960    10.6090 n          1 VCN      -0.410800
     20 O1         -43.5050   -25.3410     9.7600 o          1 VCN      -0.496100
     21 O2         -44.1470   -18.7380    10.1370 o          1 VCN      -0.597100
     22 H6         -40.7980   -17.0910    10.7650 h1         1 VCN       0.052200
     23 H5         -42.4880   -16.8770    10.3280 h1         1 VCN       0.052200
     24 H8         -40.9680   -16.3730     8.4160 hc         1 VCN       0.044033
     25 H9         -40.3160   -18.0220     8.4660 hc         1 VCN       0.044033
     26 H7         -42.0190   -17.7460     8.0250 hc         1 VCN       0.044033
     27 H11        -41.1950   -20.2470    12.1050 h1         1 VCN       0.052200
     28 H10        -40.1280   -18.8950    11.7780 h1         1 VCN       0.052200
     29 H13        -39.1600   -21.0100    10.9230 hc         1 VCN       0.044033
     30 H14        -40.5650   -21.2660     9.8730 hc         1 VCN       0.044033
     31 H12        -39.4710   -19.8960     9.5790 hc         1 VCN       0.044033
     32 H15        -43.8610   -20.1130    13.1880 ha         1 VCN       0.123000
     33 H16        -44.2340   -22.4180    14.0660 ha         1 VCN       0.123000
     34 H17        -44.0450   -24.3990    12.5350 ha         1 VCN       0.134000
     35 H1         -42.7800   -19.9580     8.0890 ha         1 VCN       0.131000
     36 H2         -42.3130   -20.6770     5.7600 ha         1 VCN       0.117000
     37 H3         -42.3360   -23.0940     5.1470 ha         1 VCN       0.120000
     38 H4         -42.8360   -24.8340     6.8900 ha         1 VCN       0.132000
@<TRIPOS>BOND
     1     1    11 1   
     2     1    18 1   
     3     1    20 2   
     4     2     3 1   
     5     2     8 ar  
     6     2    12 ar  
     7     3    19 1   
     8     3    21 2   
     9     4     5 1   
    10     4    19 1   
    11     4    22 1   
    12     4    23 1   
    13     5    24 1   
    14     5    25 1   
    15     5    26 1   
    16     6     7 1   
    17     6    19 1   
    18     6    27 1   
    19     6    28 1   
    20     7    29 1   
    21     7    30 1   
    22     7    31 1   
    23     8     9 ar  
    24     8    32 1   
    25     9    10 ar  
    26     9    33 1   
    27    10    11 ar  
    28    10    34 1   
    29    11    12 ar  
    30    12    13 1   
    31    13    14 ar  
    32    13    18 ar  
    33    14    15 ar  
    34    14    35 1   
    35    15    16 ar  
    36    15    36 1   
    37    16    17 ar  
    38    16    37 1   
    39    17    18 ar  
    40    17    38 1   
@<TRIPOS>SUBSTRUCTURE
     1 VCN         1 TEMP              0 ****  ****    0 ROOT
