@<TRIPOS>MOLECULE
VCO
   31    31     1     0     0
SMALL
abcg2


@<TRIPOS>ATOM
      1 N1          42.4390    24.4540    23.0700 n1         1 VCO      -0.503000
      2 C7          37.8590    27.6480    24.9910 c3         1 VCO      -0.077400
      3 C8          38.5200    28.3650    26.1660 c3         1 VCO      -0.099400
      4 C9          39.8370    29.0580    25.8150 c3         1 VCO       0.220800
      5 O1          43.3060    27.2790    26.7110 o          1 VCO      -0.568000
      6 C1          45.3050    25.5070    26.6490 c3         1 VCO       0.168600
      7 C5          40.0350    27.0180    23.7610 c3         1 VCO      -0.074200
      8 C6          38.6950    26.5380    24.3530 c3         1 VCO      -0.071400
      9 C4          41.1100    27.1860    24.7940 c2         1 VCO       0.289800
     10 C3          42.2250    26.3260    24.8170 ce         1 VCO      -0.288900
     11 C2          43.2730    26.4360    25.8180 c          1 VCO       0.643300
     12 C10         42.3370    25.3010    23.8550 cg         1 VCO       0.333700
     13 O           44.2290    25.5030    25.6780 os         1 VCO      -0.436100
     14 C           46.2200    24.3520    26.3170 c3         1 VCO      -0.096100
     15 N           40.9700    28.1440    25.6920 nu         1 VCO      -0.793200
     16 H1          37.6220    28.3890    24.2200 hc         1 VCO       0.045200
     17 H2          36.9070    27.2260    25.3210 hc         1 VCO       0.045200
     18 H3          37.8360    29.1310    26.5400 hc         1 VCO       0.055700
     19 H4          38.6990    27.6670    26.9900 hc         1 VCO       0.055700
     20 H5          40.1100    29.7590    26.6010 h1         1 VCO       0.056700
     21 H6          39.7270    29.6300    24.8900 h1         1 VCO       0.056700
     22 H7          45.8230    26.4650    26.5900 h1         1 VCO       0.046700
     23 H8          44.8740    25.4090    27.6460 h1         1 VCO       0.046700
     24 H9          40.3760    26.3090    23.0110 hc         1 VCO       0.072700
     25 H10         39.8890    27.9750    23.2520 hc         1 VCO       0.072700
     26 H11         38.1190    26.0910    23.5410 hc         1 VCO       0.055200
     27 H12         38.8870    25.7410    25.0780 hc         1 VCO       0.055200
     28 H13         47.0410    24.3250    27.0350 hc         1 VCO       0.048033
     29 H14         45.6840    23.4030    26.3710 hc         1 VCO       0.048033
     30 H15         46.6420    24.4620    25.3170 hc         1 VCO       0.048033
     31 H16         41.7100    28.2010    26.3860 hn         1 VCO       0.542000
@<TRIPOS>BOND
     1     1    12 3   
     2     2     3 1   
     3     2     8 1   
     4     2    16 1   
     5     2    17 1   
     6     3     4 1   
     7     3    18 1   
     8     3    19 1   
     9     4    15 1   
    10     4    20 1   
    11     4    21 1   
    12     5    11 2   
    13     6    13 1   
    14     6    14 1   
    15     6    22 1   
    16     6    23 1   
    17     7     8 1   
    18     7     9 1   
    19     7    24 1   
    20     7    25 1   
    21     8    26 1   
    22     8    27 1   
    23     9    10 2   
    24     9    15 1   
    25    10    11 1   
    26    10    12 1   
    27    11    13 1   
    28    14    28 1   
    29    14    29 1   
    30    14    30 1   
    31    15    31 1   
@<TRIPOS>SUBSTRUCTURE
     1 VCO         1 TEMP              0 ****  ****    0 ROOT
