@<TRIPOS>MOLECULE
VCO
   31    31     1     0     0
SMALL
No Charge or Current Charge


@<TRIPOS>ATOM
      1 N1          42.3930    24.3480    23.1490 n1         1 VCO      -0.503000
      2 C7          37.8480    27.6280    25.0230 c3         1 VCO      -0.077400
      3 C8          38.5830    28.3020    26.2050 c3         1 VCO      -0.099400
      4 C9          39.8380    29.1040    25.7970 c3         1 VCO       0.220800
      5 O1          43.3140    27.3490    26.7020 o          1 VCO      -0.568000
      6 C1          45.3260    25.5110    26.6930 c3         1 VCO       0.168600
      7 C5          39.9950    27.0770    23.6710 c3         1 VCO      -0.074200
      8 C6          38.6680    26.5540    24.2730 c3         1 VCO      -0.071400
      9 C4          41.1280    27.1720    24.6990 c2         1 VCO       0.289800
     10 C3          42.1950    26.3320    24.8110 ce         1 VCO      -0.288900
     11 C2          43.2770    26.4670    25.8510 c          1 VCO       0.643300
     12 C10         42.3290    25.2320    23.9090 cg         1 VCO       0.333700
     13 O           44.2380    25.4910    25.7550 os         1 VCO      -0.436100
     14 C           46.2420    24.3220    26.3630 c3         1 VCO      -0.096100
     15 N           40.9990    28.2190    25.6090 nu         1 VCO      -0.793200
     16 H1          37.5310    28.4000    24.3110 hc         1 VCO       0.045200
     17 H2          36.9290    27.1630    25.4010 hc         1 VCO       0.045200
     18 H3          37.8810    28.9960    26.6840 hc         1 VCO       0.055700
     19 H4          38.8460    27.5550    26.9640 hc         1 VCO       0.055700
     20 H5          40.0660    29.8210    26.5990 h1         1 VCO       0.056700
     21 H6          39.6360    29.6890    24.8890 h1         1 VCO       0.056700
     22 H7          45.8960    26.4460    26.6130 h1         1 VCO       0.046700
     23 H8          44.9570    25.4140    27.7230 h1         1 VCO       0.046700
     24 H9          40.2680    26.4210    22.8390 hc         1 VCO       0.072700
     25 H10         39.8250    28.0510    23.1980 hc         1 VCO       0.072700
     26 H11         38.0470    26.1590    23.4590 hc         1 VCO       0.055200
     27 H12         38.8770    25.7100    24.9420 hc         1 VCO       0.055200
     28 H13         47.0910    24.2940    27.0550 hc         1 VCO       0.048033
     29 H14         45.6940    23.3770    26.4510 hc         1 VCO       0.048033
     30 H15         46.6320    24.4080    25.3420 hc         1 VCO       0.048033
     31 H16         41.7570    28.2860    26.3010 hn         1 VCO       0.542000
@<TRIPOS>BOND
     1     1    12 3   
     2     2     3 1   
     3     2     8 1   
     4     2    16 1   
     5     2    17 1   
     6     3     4 1   
     7     3    18 1   
     8     3    19 1   
     9     4    15 1   
    10     4    20 1   
    11     4    21 1   
    12     5    11 2   
    13     6    13 1   
    14     6    14 1   
    15     6    22 1   
    16     6    23 1   
    17     7     8 1   
    18     7     9 1   
    19     7    24 1   
    20     7    25 1   
    21     8    26 1   
    22     8    27 1   
    23     9    10 2   
    24     9    15 1   
    25    10    11 1   
    26    10    12 1   
    27    11    13 1   
    28    14    28 1   
    29    14    29 1   
    30    14    30 1   
    31    15    31 1   
@<TRIPOS>SUBSTRUCTURE
     1 VCO         1 TEMP              0 ****  ****    0 ROOT
