@<TRIPOS>MOLECULE
VCQ
   31    32     1     0     0
SMALL
abcg2


@<TRIPOS>ATOM
      1 C1           3.8120   -47.8440    -6.6420 c          1 VCQ       0.700000
      2 C10          1.0770   -44.5250    -5.3640 ca         1 VCQ      -0.129500
      3 C11          1.0230   -44.5780    -3.9740 ca         1 VCQ      -0.144000
      4 C12          1.3760   -45.7580    -3.3280 ca         1 VCQ      -0.129500
      5 C13          1.7740   -46.8700    -4.0640 ca         1 VCQ      -0.096500
      6 C2           2.3020   -48.0520    -6.2420 c3         1 VCQ       0.072300
      7 C3           1.4690   -48.2860    -7.5160 c5         1 VCQ      -0.041700
      8 C4          -0.0150   -48.5770    -7.2720 c5         1 VCQ      -0.075900
      9 C5          -0.5020   -49.0980    -8.6290 c5         1 VCQ      -0.079900
     10 C6           0.6970   -49.8910    -9.2100 c5         1 VCQ      -0.079900
     11 C7           1.9280   -49.4860    -8.3600 c5         1 VCQ      -0.075900
     12 C8           1.8290   -46.8310    -5.4580 ca         1 VCQ      -0.023300
     13 C9           1.4760   -45.6380    -6.0960 ca         1 VCQ      -0.096500
     14 O1           4.0930   -46.9050    -7.4100 o          1 VCQ      -0.705500
     15 O2           4.6090   -48.6810    -6.1360 o          1 VCQ      -0.705500
     16 O3           2.2390   -49.2100    -5.4170 oh         1 VCQ      -0.709000
     17 H14          1.3390   -45.8170    -2.2460 ha         1 VCQ       0.088500
     18 H15          2.0410   -47.7860    -3.5570 ha         1 VCQ       0.121500
     19 H1           1.5490   -47.3880    -8.1330 hc         1 VCQ       0.053700
     20 H2          -0.5700   -47.7030    -6.9280 hc         1 VCQ       0.048700
     21 H3          -0.1080   -49.3540    -6.5080 hc         1 VCQ       0.048700
     22 H5          -0.7380   -48.2510    -9.2790 hc         1 VCQ       0.021700
     23 H4          -1.4050   -49.7050    -8.5490 hc         1 VCQ       0.021700
     24 H6           0.5230   -50.9670    -9.1470 hc         1 VCQ       0.021700
     25 H7           0.8450   -49.6560   -10.2650 hc         1 VCQ       0.021700
     26 H9           2.2100   -50.3010    -7.6920 hc         1 VCQ       0.048700
     27 H8           2.7980   -49.2480    -8.9720 hc         1 VCQ       0.048700
     28 H11          1.5150   -45.5690    -7.1730 ha         1 VCQ       0.121500
     29 H10          3.1810   -49.4760    -5.3640 ho         1 VCQ       0.478000
     30 H12          0.8050   -43.6140    -5.8820 ha         1 VCQ       0.088500
     31 H13          0.7090   -43.7120    -3.4040 ha         1 VCQ       0.086000
@<TRIPOS>BOND
     1     1     6 1   
     2     1    14 1   
     3     1    15 1   
     4     2     3 ar  
     5     2    13 ar  
     6     2    30 1   
     7     3     4 ar  
     8     3    31 1   
     9     4     5 ar  
    10     4    17 1   
    11     5    12 ar  
    12     5    18 1   
    13     6     7 1   
    14     6    12 1   
    15     6    16 1   
    16     7     8 1   
    17     7    11 1   
    18     7    19 1   
    19     8     9 1   
    20     8    20 1   
    21     8    21 1   
    22     9    10 1   
    23     9    22 1   
    24     9    23 1   
    25    10    11 1   
    26    10    24 1   
    27    10    25 1   
    28    11    26 1   
    29    11    27 1   
    30    12    13 ar  
    31    13    28 1   
    32    16    29 1   
@<TRIPOS>SUBSTRUCTURE
     1 VCQ         1 TEMP              0 ****  ****    0 ROOT
