@<TRIPOS>MOLECULE
VCQ
   31    32     1     0     0
SMALL
No Charge or Current Charge


@<TRIPOS>ATOM
      1 C1           3.7880   -47.9440    -6.4900 c          1 VCQ       0.700000
      2 C10          0.7180   -44.6170    -5.2960 ca         1 VCQ      -0.129500
      3 C11          1.0810   -44.4890    -3.9480 ca         1 VCQ      -0.144000
      4 C12          1.8140   -45.5090    -3.3250 ca         1 VCQ      -0.129500
      5 C13          2.1750   -46.6590    -4.0480 ca         1 VCQ      -0.096500
      6 C2           2.2440   -48.0940    -6.1700 c3         1 VCQ       0.072300
      7 C3           1.4620   -48.3770    -7.5070 c5         1 VCQ      -0.041700
      8 C4          -0.0620   -48.6610    -7.3700 c5         1 VCQ      -0.075900
      9 C5          -0.4500   -49.0240    -8.8310 c5         1 VCQ      -0.079900
     10 C6           0.8190   -49.7230    -9.4160 c5         1 VCQ      -0.079900
     11 C7           1.8700   -49.6710    -8.2700 c5         1 VCQ      -0.075900
     12 C8           1.8040   -46.8170    -5.4050 ca         1 VCQ      -0.023300
     13 C9           1.0790   -45.7660    -6.0210 ca         1 VCQ      -0.096500
     14 O1           4.1670   -47.0590    -7.2470 o          1 VCQ      -0.705500
     15 O2           4.5540   -48.7220    -5.9290 o          1 VCQ      -0.705500
     16 O3           2.0440   -49.2420    -5.2950 oh         1 VCQ      -0.709000
     17 H14          2.1050   -45.4100    -2.2820 ha         1 VCQ       0.088500
     18 H15          2.7510   -47.4330    -3.5460 ha         1 VCQ       0.121500
     19 H1           1.6370   -47.5160    -8.1620 hc         1 VCQ       0.053700
     20 H2          -0.6290   -47.8010    -6.9980 hc         1 VCQ       0.048700
     21 H3          -0.2660   -49.4960    -6.6880 hc         1 VCQ       0.048700
     22 H5          -0.6940   -48.1230    -9.4060 hc         1 VCQ       0.021700
     23 H4          -1.3330   -49.6720    -8.8660 hc         1 VCQ       0.021700
     24 H6           0.6150   -50.7540    -9.7270 hc         1 VCQ       0.021700
     25 H7           1.1780   -49.1890   -10.3040 hc         1 VCQ       0.021700
     26 H9           1.8030   -50.5630    -7.6350 hc         1 VCQ       0.048700
     27 H8           2.8950   -49.6280    -8.6570 hc         1 VCQ       0.048700
     28 H11          0.7900   -45.8180    -7.0660 ha         1 VCQ       0.121500
     29 H10          2.9610   -49.5770    -5.1380 ho         1 VCQ       0.478000
     30 H12          0.1580   -43.8230    -5.7840 ha         1 VCQ       0.088500
     31 H13          0.8020   -43.5980    -3.3890 ha         1 VCQ       0.086000
@<TRIPOS>BOND
     1     1     6 1   
     2     1    14 1   
     3     1    15 1   
     4     2     3 ar  
     5     2    13 ar  
     6     2    30 1   
     7     3     4 ar  
     8     3    31 1   
     9     4     5 ar  
    10     4    17 1   
    11     5    12 ar  
    12     5    18 1   
    13     6     7 1   
    14     6    12 1   
    15     6    16 1   
    16     7     8 1   
    17     7    11 1   
    18     7    19 1   
    19     8     9 1   
    20     8    20 1   
    21     8    21 1   
    22     9    10 1   
    23     9    22 1   
    24     9    23 1   
    25    10    11 1   
    26    10    24 1   
    27    10    25 1   
    28    11    26 1   
    29    11    27 1   
    30    12    13 ar  
    31    13    28 1   
    32    16    29 1   
@<TRIPOS>SUBSTRUCTURE
     1 VCQ         1 TEMP              0 ****  ****    0 ROOT
