@<TRIPOS>MOLECULE
VCT
   32    34     1     0     0
SMALL
abcg2


@<TRIPOS>ATOM
      1 C1         -42.9390   -23.7540     9.6840 c          1 VCT       0.598300
      2 C10        -42.9640   -20.3220    10.9900 ca         1 VCT      -0.119600
      3 C11        -42.8320   -18.9260    10.4500 c          1 VCT       0.605700
      4 C12        -40.3680   -19.2100    10.3590 c3         1 VCT       0.091800
      5 C13        -41.4940   -17.1300     9.5790 c3         1 VCT       0.091800
      6 C14        -43.2580   -20.4950    12.3510 ca         1 VCT      -0.057000
      7 C15        -43.4500   -21.7560    12.9000 ca         1 VCT      -0.124000
      8 C16        -43.3650   -22.8930    12.0940 ca         1 VCT      -0.031000
      9 C2         -43.0890   -22.7220    10.7520 ca         1 VCT      -0.183600
     10 C3         -42.8880   -21.4500    10.1860 cp         1 VCT       0.014000
     11 C4         -42.6170   -21.6170     8.7370 cp         1 VCT      -0.020000
     12 C5         -42.3780   -20.7000     7.7270 ca         1 VCT      -0.088000
     13 C6         -42.1560   -21.1770     6.4300 ca         1 VCT      -0.090000
     14 C7         -42.1750   -22.5390     6.1430 ca         1 VCT      -0.117000
     15 C8         -42.4230   -23.4650     7.1580 ca         1 VCT      -0.042000
     16 C9         -42.6410   -22.9930     8.4380 ca         1 VCT      -0.176600
     17 N1         -41.6050   -18.4660    10.1560 n          1 VCT      -0.410800
     18 O1         -43.0400   -24.9600     9.8080 o          1 VCT      -0.495100
     19 O2         -43.8500   -18.2420    10.2910 o          1 VCT      -0.595100
     20 H7         -40.5680   -20.1440    10.8730 h1         1 VCT       0.044700
     21 H6         -39.8960   -19.4270     9.3990 h1         1 VCT       0.044700
     22 H5         -39.6800   -18.6180    10.9640 h1         1 VCT       0.044700
     23 H8         -40.4450   -16.9240     9.3820 h1         1 VCT       0.044700
     24 H9         -42.0540   -17.0690     8.6450 h1         1 VCT       0.044700
     25 H10        -41.8860   -16.3780    10.2660 h1         1 VCT       0.044700
     26 H11        -43.3280   -19.6200    12.9850 ha         1 VCT       0.126000
     27 H12        -43.6660   -21.8530    13.9550 ha         1 VCT       0.124000
     28 H13        -43.5120   -23.8840    12.5060 ha         1 VCT       0.134000
     29 H1         -42.3590   -19.6370     7.9160 ha         1 VCT       0.128000
     30 H2         -41.9670   -20.4680     5.6340 ha         1 VCT       0.117000
     31 H3         -42.0000   -22.8780     5.1310 ha         1 VCT       0.120000
     32 H4         -42.4450   -24.5280     6.9510 ha         1 VCT       0.132000
@<TRIPOS>BOND
     1     1     9 1   
     2     1    16 1   
     3     1    18 2   
     4     2     3 1   
     5     2     6 ar  
     6     2    10 ar  
     7     3    17 1   
     8     3    19 2   
     9     4    17 1   
    10     4    20 1   
    11     4    21 1   
    12     4    22 1   
    13     5    17 1   
    14     5    23 1   
    15     5    24 1   
    16     5    25 1   
    17     6     7 ar  
    18     6    26 1   
    19     7     8 ar  
    20     7    27 1   
    21     8     9 ar  
    22     8    28 1   
    23     9    10 ar  
    24    10    11 1   
    25    11    12 ar  
    26    11    16 ar  
    27    12    13 ar  
    28    12    29 1   
    29    13    14 ar  
    30    13    30 1   
    31    14    15 ar  
    32    14    31 1   
    33    15    16 ar  
    34    15    32 1   
@<TRIPOS>SUBSTRUCTURE
     1 VCT         1 TEMP              0 ****  ****    0 ROOT
