@<TRIPOS>MOLECULE
VCT
   32    34     1     0     0
SMALL
No Charge or Current Charge


@<TRIPOS>ATOM
      1 C1         -42.7680   -23.6920     9.6880 c          1 VCT       0.598300
      2 C10        -43.0910   -20.2970    11.0400 ca         1 VCT      -0.119600
      3 C11        -42.9180   -18.9290    10.4470 c          1 VCT       0.605700
      4 C12        -40.4280   -19.3500    10.4410 c3         1 VCT       0.091800
      5 C13        -41.3720   -17.2070     9.4730 c3         1 VCT       0.091800
      6 C14        -43.4190   -20.4780    12.4020 ca         1 VCT      -0.057000
      7 C15        -43.5340   -21.7780    12.9440 ca         1 VCT      -0.124000
      8 C16        -43.3270   -22.9110    12.1320 ca         1 VCT      -0.031000
      9 C2         -43.0270   -22.7000    10.7800 ca         1 VCT      -0.183600
     10 C3         -42.9200   -21.4280    10.1990 cp         1 VCT       0.014000
     11 C4         -42.6390   -21.5730     8.7440 cp         1 VCT      -0.020000
     12 C5         -42.5160   -20.6180     7.7080 ca         1 VCT      -0.088000
     13 C6         -42.2510   -21.0590     6.3930 ca         1 VCT      -0.090000
     14 C7         -42.1240   -22.4380     6.1040 ca         1 VCT      -0.117000
     15 C8         -42.2710   -23.3970     7.1250 ca         1 VCT      -0.042000
     16 C9         -42.5290   -22.9320     8.4200 ca         1 VCT      -0.176600
     17 N1         -41.6100   -18.5310    10.0890 n          1 VCT      -0.410800
     18 O1         -42.7590   -24.9110     9.8100 o          1 VCT      -0.495100
     19 O2         -43.8780   -18.1850    10.2930 o          1 VCT      -0.595100
     20 H7         -40.5210   -19.7280    11.4670 h1         1 VCT       0.044700
     21 H6         -40.3440   -20.1980     9.7490 h1         1 VCT       0.044700
     22 H5         -39.5110   -18.7500    10.3760 h1         1 VCT       0.044700
     23 H8         -40.3690   -17.1650     9.0290 h1         1 VCT       0.044700
     24 H9         -42.1100   -17.0230     8.6810 h1         1 VCT       0.044700
     25 H10        -41.4600   -16.4240    10.2360 h1         1 VCT       0.044700
     26 H11        -43.5660   -19.6110    13.0440 ha         1 VCT       0.126000
     27 H12        -43.7750   -21.9060    13.9970 ha         1 VCT       0.124000
     28 H13        -43.4050   -23.9170    12.5410 ha         1 VCT       0.134000
     29 H1         -42.6310   -19.5570     7.8970 ha         1 VCT       0.128000
     30 H2         -42.1510   -20.3300     5.5920 ha         1 VCT       0.117000
     31 H3         -41.9240   -22.7600     5.0840 ha         1 VCT       0.120000
     32 H4         -42.1920   -24.4620     6.9120 ha         1 VCT       0.132000
@<TRIPOS>BOND
     1     1     9 1   
     2     1    16 1   
     3     1    18 2   
     4     2     3 1   
     5     2     6 ar  
     6     2    10 ar  
     7     3    17 1   
     8     3    19 2   
     9     4    17 1   
    10     4    20 1   
    11     4    21 1   
    12     4    22 1   
    13     5    17 1   
    14     5    23 1   
    15     5    24 1   
    16     5    25 1   
    17     6     7 ar  
    18     6    26 1   
    19     7     8 ar  
    20     7    27 1   
    21     8     9 ar  
    22     8    28 1   
    23     9    10 ar  
    24    10    11 1   
    25    11    12 ar  
    26    11    16 ar  
    27    12    13 ar  
    28    12    29 1   
    29    13    14 ar  
    30    13    30 1   
    31    14    15 ar  
    32    14    31 1   
    33    15    16 ar  
    34    15    32 1   
@<TRIPOS>SUBSTRUCTURE
     1 VCT         1 TEMP              0 ****  ****    0 ROOT
