@<TRIPOS>MOLECULE
VCU
   23    23     1     0     0
SMALL
abcg2


@<TRIPOS>ATOM
      1 C01         86.3910   -14.1010    39.4120 c3         1 VCU       0.146100
      2 C03         87.1120   -12.3150    40.9370 c6         1 VCU       0.171500
      3 C04         86.0070   -12.4470    41.9880 c6         1 VCU      -0.074400
      4 C05         86.4960   -12.0200    43.3730 c6         1 VCU      -0.072900
      5 C06         87.0570   -10.5980    43.3560 c6         1 VCU      -0.075400
      6 C07         88.1530   -10.4490    42.3000 c6         1 VCU      -0.072900
      7 C08         87.6600   -10.8890    40.9200 c6         1 VCU      -0.074400
      8 N02         86.6260   -12.6710    39.6000 n7         1 VCU      -0.865400
      9 H011        86.1900   -14.2970    38.3580 h1         1 VCU       0.028367
     10 H013        87.2440   -14.7230    39.7240 h1         1 VCU       0.028367
     11 H012        85.5190   -14.4230    39.9820 h1         1 VCU       0.028367
     12 H031        87.9350   -12.9900    41.2340 h1         1 VCU       0.015700
     13 H042        85.1650   -11.8160    41.6800 hc         1 VCU       0.044950
     14 H041        85.6400   -13.4750    42.0250 hc         1 VCU       0.044950
     15 H052        85.6800   -12.0980    44.0960 hc         1 VCU       0.037950
     16 H051        87.2780   -12.7110    43.7080 hc         1 VCU       0.037950
     17 H062        86.2450    -9.8950    43.1340 hc         1 VCU       0.039200
     18 H061        87.4450   -10.3310    44.3430 hc         1 VCU       0.039200
     19 H071        88.5020    -9.4150    42.2570 hc         1 VCU       0.037950
     20 H072        89.0150   -11.0610    42.5880 hc         1 VCU       0.037950
     21 H082        86.8640   -10.2160    40.5820 hc         1 VCU       0.044950
     22 H081        88.4710   -10.8180    40.1880 hc         1 VCU       0.044950
     23 H021        87.3210   -12.3710    38.9250 hn         1 VCU       0.405000
@<TRIPOS>BOND
     1     1     8 1   
     2     1     9 1   
     3     1    10 1   
     4     1    11 1   
     5     2     3 1   
     6     2     7 1   
     7     2     8 1   
     8     2    12 1   
     9     3     4 1   
    10     3    13 1   
    11     3    14 1   
    12     4     5 1   
    13     4    15 1   
    14     4    16 1   
    15     5     6 1   
    16     5    17 1   
    17     5    18 1   
    18     6     7 1   
    19     6    19 1   
    20     6    20 1   
    21     7    21 1   
    22     7    22 1   
    23     8    23 1   
@<TRIPOS>SUBSTRUCTURE
     1 VCU         1 TEMP              0 ****  ****    0 ROOT
