@<TRIPOS>MOLECULE
VCU
   23    23     1     0     0
SMALL
No Charge or Current Charge


@<TRIPOS>ATOM
      1 C01         86.3530   -14.1320    39.3520 c3         1 VCU       0.146100
      2 C03         87.1300   -12.3230    40.9380 c6         1 VCU       0.171500
      3 C04         86.0040   -12.4620    42.0040 c6         1 VCU      -0.074400
      4 C05         86.4900   -12.0120    43.4050 c6         1 VCU      -0.072900
      5 C06         87.0420   -10.5660    43.3730 c6         1 VCU      -0.075400
      6 C07         88.1640   -10.4230    42.3160 c6         1 VCU      -0.072900
      7 C08         87.6750   -10.8700    40.9160 c6         1 VCU      -0.074400
      8 N02         86.6680   -12.7070    39.5860 n7         1 VCU      -0.865400
      9 H011        86.0600   -14.2930    38.3060 h1         1 VCU       0.028367
     10 H013        87.2250   -14.7650    39.5620 h1         1 VCU       0.028367
     11 H012        85.5230   -14.4670    39.9880 h1         1 VCU       0.028367
     12 H031        87.9600   -12.9890    41.2190 h1         1 VCU       0.015700
     13 H042        85.1330   -11.8620    41.7060 hc         1 VCU       0.044950
     14 H041        85.6610   -13.5030    42.0650 hc         1 VCU       0.044950
     15 H052        85.6630   -12.0780    44.1250 hc         1 VCU       0.037950
     16 H051        87.2700   -12.6980    43.7630 hc         1 VCU       0.037950
     17 H062        86.2280    -9.8640    43.1460 hc         1 VCU       0.039200
     18 H061        87.4250   -10.2900    44.3650 hc         1 VCU       0.039200
     19 H071        88.5080    -9.3800    42.2770 hc         1 VCU       0.037950
     20 H072        89.0330   -11.0270    42.6150 hc         1 VCU       0.037950
     21 H082        86.8920   -10.1820    40.5660 hc         1 VCU       0.044950
     22 H081        88.5030   -10.7910    40.1990 hc         1 VCU       0.044950
     23 H021        87.4060   -12.4460    38.9190 hn         1 VCU       0.405000
@<TRIPOS>BOND
     1     1     8 1   
     2     1     9 1   
     3     1    10 1   
     4     1    11 1   
     5     2     3 1   
     6     2     7 1   
     7     2     8 1   
     8     2    12 1   
     9     3     4 1   
    10     3    13 1   
    11     3    14 1   
    12     4     5 1   
    13     4    15 1   
    14     4    16 1   
    15     5     6 1   
    16     5    17 1   
    17     5    18 1   
    18     6     7 1   
    19     6    19 1   
    20     6    20 1   
    21     7    21 1   
    22     7    22 1   
    23     8    23 1   
@<TRIPOS>SUBSTRUCTURE
     1 VCU         1 TEMP              0 ****  ****    0 ROOT
