@<TRIPOS>MOLECULE
VCV
   75    80     1     0     0
SMALL
abcg2


@<TRIPOS>ATOM
      1 C1          14.3730    15.6350     5.9880 ca         1 VCV       0.327000
      2 C2          13.0650    15.2710     5.7290 ca         1 VCV      -0.179000
      3 C3          12.6450    14.9230     4.4280 ca         1 VCV       0.015200
      4 C4          13.5260    15.0120     3.3620 ca         1 VCV      -0.129000
      5 C5          14.8280    15.4360     3.6190 ca         1 VCV      -0.019200
      6 C6          15.2820    15.7080     4.9210 ca         1 VCV      -0.136800
      7 C7          16.6670    16.0370     4.8230 cc         1 VCV      -0.249200
      8 C8          16.9880    15.9700     3.5030 cd         1 VCV      -0.148100
      9 C9          15.8020    15.5670     1.2980 c3         1 VCV       0.018400
     10 C10         14.6240    16.4630     0.8850 ca         1 VCV       0.341800
     11 C11         14.5900    17.7770     1.3510 ca         1 VCV      -0.143500
     12 C12         13.5340    18.5900     0.9820 ca         1 VCV      -0.074500
     13 C13         12.5470    18.0730     0.1530 ca         1 VCV      -0.157500
     14 C14         12.6680    16.7560    -0.2550 ca         1 VCV       0.336900
     15 C15         15.6640    14.1290     0.7990 ca         1 VCV       0.341800
     16 C16         15.6210    12.7640    -1.0350 ca         1 VCV       0.336900
     17 C17         15.5090    11.6150    -0.2640 ca         1 VCV      -0.157500
     18 C18         15.4970    11.7640     1.1110 ca         1 VCV      -0.074500
     19 C19         15.5790    13.0380     1.6560 ca         1 VCV      -0.143500
     20 N1          15.7010    13.9800    -0.5210 nb         1 VCV      -0.653500
     21 N2          13.6760    15.9670     0.1090 nb         1 VCV      -0.653500
     22 N3          15.8880    15.6110     2.7590 na         1 VCV      -0.096700
     23 C20         17.0760    16.1540     0.6740 c3         1 VCV      -0.096100
     24 C21         11.2640    14.4630     4.1890 cc         1 VCV      -0.081200
     25 C22         10.6360    14.6710     2.9290 cc         1 VCV      -0.205000
     26 C23          9.3730    14.2180     2.6800 cd         1 VCV       0.042800
     27 C24          8.6400    13.4940     3.7110 c          1 VCV       0.534200
     28 C25         10.5650    13.7860     5.1370 cd         1 VCV      -0.070400
     29 C26         14.6820    13.4690     8.3770 c3         1 VCV      -0.335400
     30 C27         16.1250    13.1500     8.0390 c3         1 VCV      -0.070100
     31 N4          14.8350    15.9870     7.2660 nu         1 VCV      -0.890100
     32 S1          14.4080    15.2130     8.6740 s6         1 VCV       1.191100
     33 O1          12.9860    15.4080     8.9020 o          1 VCV      -0.529500
     34 O2          15.3590    15.7000     9.6610 o          1 VCV      -0.529500
     35 N5           9.2980    13.3290     4.9020 n          1 VCV      -0.255000
     36 C28          8.5910    12.6120     5.9540 c3         1 VCV       0.079300
     37 C29          9.3890    14.8730     0.3500 cy         1 VCV       0.182500
     38 C30         10.3520    13.9380    -0.4170 cy         1 VCV       0.109300
     39 C31          8.6150    14.9620    -0.9690 cy         1 VCV       0.109300
     40 O3           7.5050    13.0510     3.5350 o          1 VCV      -0.577000
     41 N6           8.6900    14.4210     1.5090 nu         1 VCV      -0.778200
     42 N7           9.8350    14.5240    -1.6620 n6         1 VCV      -0.848400
     43 H1          12.3380    15.2760     6.5290 ha         1 VCV       0.139000
     44 H2          13.2210    14.7160     2.3690 ha         1 VCV       0.139000
     45 H3          17.3510    16.2940     5.6170 ha         1 VCV       0.203000
     46 H4          17.9410    16.1580     3.0400 h4         1 VCV       0.218000
     47 H5          15.3670    18.1580     2.0000 ha         1 VCV       0.131500
     48 H6          13.4810    19.6100     1.3360 ha         1 VCV       0.121000
     49 H7          11.7040    18.6700    -0.1650 ha         1 VCV       0.126000
     50 H8          11.9190    16.3120    -0.9020 h4         1 VCV       0.029600
     51 H9          15.6550    12.6940    -2.1170 h4         1 VCV       0.029600
     52 H10         15.4480    10.6420    -0.7310 ha         1 VCV       0.126000
     53 H11         15.4280    10.9010     1.7610 ha         1 VCV       0.121000
     54 H12         15.5840    13.1590     2.7290 ha         1 VCV       0.131500
     55 H13         17.2620    17.1690     1.0220 hc         1 VCV       0.058033
     56 H14         17.9490    15.5400     0.8950 hc         1 VCV       0.058033
     57 H15         16.9530    16.1800    -0.4060 hc         1 VCV       0.058033
     58 H16         11.1720    15.2180     2.1650 ha         1 VCV       0.195000
     59 H17         10.9720    13.5470     6.1080 h4         1 VCV       0.205000
     60 H18         14.3560    12.9750     9.2950 h1         1 VCV       0.101200
     61 H19         13.9980    13.1720     7.5800 h1         1 VCV       0.101200
     62 H20         16.2210    12.0750     7.8890 hc         1 VCV       0.049367
     63 H21         16.4430    13.6400     7.1200 hc         1 VCV       0.049367
     64 H22         16.8000    13.4370     8.8420 hc         1 VCV       0.049367
     65 H23         15.7790    16.3520     7.3090 hn         1 VCV       0.507000
     66 H24          9.2290    12.5500     6.8290 h1         1 VCV       0.055033
     67 H25          7.6750    13.1330     6.2240 h1         1 VCV       0.055033
     68 H26          8.3370    11.6050     5.6300 h1         1 VCV       0.055033
     69 H27          9.8750    15.8280     0.5670 h1         1 VCV       0.080700
     70 H28         10.0760    12.8870    -0.2640 h1         1 VCV       0.055450
     71 H29         11.4270    14.0480    -0.2580 h1         1 VCV       0.055450
     72 H30          8.2280    15.9390    -1.2650 h1         1 VCV       0.055450
     73 H31          7.7950    14.2340    -1.0030 h1         1 VCV       0.055450
     74 H32          7.9330    13.7720     1.3510 hn         1 VCV       0.488000
     75 H33          9.6850    13.8660    -2.4160 hn         1 VCV       0.412000
@<TRIPOS>BOND
     1     1     2 ar  
     2     1     6 ar  
     3     1    31 1   
     4     2     3 ar  
     5     2    43 1   
     6     3     4 ar  
     7     3    24 1   
     8     4     5 ar  
     9     4    44 1   
    10     5     6 ar  
    11     5    22 1   
    12     6     7 1   
    13     7     8 2   
    14     7    45 1   
    15     8    22 1   
    16     8    46 1   
    17     9    10 1   
    18     9    15 1   
    19     9    22 1   
    20     9    23 1   
    21    10    11 ar  
    22    10    21 ar  
    23    11    12 ar  
    24    11    47 1   
    25    12    13 ar  
    26    12    48 1   
    27    13    14 ar  
    28    13    49 1   
    29    14    21 ar  
    30    14    50 1   
    31    15    19 ar  
    32    15    20 ar  
    33    16    17 ar  
    34    16    20 ar  
    35    16    51 1   
    36    17    18 ar  
    37    17    52 1   
    38    18    19 ar  
    39    18    53 1   
    40    19    54 1   
    41    23    55 1   
    42    23    56 1   
    43    23    57 1   
    44    24    25 1   
    45    24    28 2   
    46    25    26 2   
    47    25    58 1   
    48    26    27 1   
    49    26    41 1   
    50    27    35 1   
    51    27    40 2   
    52    28    35 1   
    53    28    59 1   
    54    29    30 1   
    55    29    32 1   
    56    29    60 1   
    57    29    61 1   
    58    30    62 1   
    59    30    63 1   
    60    30    64 1   
    61    31    32 1   
    62    31    65 1   
    63    32    33 2   
    64    32    34 2   
    65    35    36 1   
    66    36    66 1   
    67    36    67 1   
    68    36    68 1   
    69    37    38 1   
    70    37    39 1   
    71    37    41 1   
    72    37    69 1   
    73    38    42 1   
    74    38    70 1   
    75    38    71 1   
    76    39    42 1   
    77    39    72 1   
    78    39    73 1   
    79    41    74 1   
    80    42    75 1   
@<TRIPOS>SUBSTRUCTURE
     1 VCV         1 TEMP              0 ****  ****    0 ROOT
