@<TRIPOS>MOLECULE
VCV
   75    80     1     0     0
SMALL
No Charge or Current Charge


@<TRIPOS>ATOM
      1 C1          14.4350    15.5780     6.1020 ca         1 VCV       0.327000
      2 C2          13.0770    15.3040     5.8560 ca         1 VCV      -0.179000
      3 C3          12.5920    15.0800     4.5380 ca         1 VCV       0.015200
      4 C4          13.5100    15.1790     3.4620 ca         1 VCV      -0.129000
      5 C5          14.8590    15.5030     3.7100 ca         1 VCV      -0.019200
      6 C6          15.2940    15.6740     4.9980 ca         1 VCV      -0.136800
      7 C7          16.7100    15.9000     4.9480 cc         1 VCV      -0.249200
      8 C8          17.0860    15.8550     3.6160 cd         1 VCV      -0.148100
      9 C9          15.8630    15.6690     1.3090 c3         1 VCV       0.018400
     10 C10         14.5410    16.2820     0.7860 ca         1 VCV       0.341800
     11 C11         14.0450    17.4910     1.3270 ca         1 VCV      -0.143500
     12 C12         12.8560    18.0450     0.8270 ca         1 VCV      -0.074500
     13 C13         12.2060    17.3770    -0.2210 ca         1 VCV      -0.157500
     14 C14         12.7630    16.1910    -0.7220 ca         1 VCV       0.336900
     15 C15         16.0690    14.2240     0.7550 ca         1 VCV       0.341800
     16 C16         17.0940    12.8220    -0.8150 ca         1 VCV       0.336900
     17 C17         16.4930    11.6780    -0.2700 ca         1 VCV      -0.157500
     18 C18         15.6480    11.8180     0.8390 ca         1 VCV      -0.074500
     19 C19         15.4380    13.1070     1.3550 ca         1 VCV      -0.143500
     20 N1          16.8950    14.0640    -0.3190 nb         1 VCV      -0.653500
     21 N2          13.9010    15.6490    -0.2320 nb         1 VCV      -0.653500
     22 N3          15.9350    15.6500     2.8140 na         1 VCV      -0.096700
     23 C20         16.9800    16.6320     0.7780 c3         1 VCV      -0.096100
     24 C21         11.1670    14.7660     4.2750 cc         1 VCV      -0.081200
     25 C22         10.5320    14.8960     2.9880 cc         1 VCV      -0.205000
     26 C23          9.2140    14.5280     2.8110 cd         1 VCV       0.042800
     27 C24          8.4020    13.9680     3.9550 c          1 VCV       0.534200
     28 C25         10.4360    14.2070     5.3140 cd         1 VCV      -0.070400
     29 C26         14.8300    13.1380     8.2030 c3         1 VCV      -0.335400
     30 C27         16.2420    12.8100     7.6540 c3         1 VCV      -0.070100
     31 N4          14.9400    15.7630     7.3820 nu         1 VCV      -0.890100
     32 S1          14.6140    14.8490     8.7240 s6         1 VCV       1.191100
     33 O1          13.2100    15.0840     9.0650 o          1 VCV      -0.529500
     34 O2          15.6740    15.1960     9.6720 o          1 VCV      -0.529500
     35 N5           9.0960    13.8360     5.1800 n          1 VCV      -0.255000
     36 C28          8.3620    13.2720     6.3360 c3         1 VCV       0.079300
     37 C29          9.2250    14.9480     0.2860 cy         1 VCV       0.182500
     38 C30         10.0860    13.8230    -0.3900 cy         1 VCV       0.109300
     39 C31          8.3650    14.8490    -1.0240 cy         1 VCV       0.109300
     40 O3           7.2220    13.6410     3.8340 o          1 VCV      -0.577000
     41 N6           8.5880    14.6610     1.5740 nu         1 VCV      -0.778200
     42 N7           9.6410    14.4240    -1.6930 n6         1 VCV      -0.848400
     43 H1          12.3980    15.3020     6.6970 ha         1 VCV       0.139000
     44 H2          13.1800    14.9680     2.4540 ha         1 VCV       0.139000
     45 H3          17.3920    16.0590     5.7800 ha         1 VCV       0.203000
     46 H4          18.0790    15.9720     3.1920 h4         1 VCV       0.218000
     47 H5          14.5770    17.9900     2.1330 ha         1 VCV       0.131500
     48 H6          12.4550    18.9700     1.2350 ha         1 VCV       0.121000
     49 H7          11.2880    17.7710    -0.6480 ha         1 VCV       0.126000
     50 H8          12.2870    15.6580    -1.5440 h4         1 VCV       0.029600
     51 H9          17.7580    12.7430    -1.6750 h4         1 VCV       0.029600
     52 H10         16.6860    10.7010    -0.7050 ha         1 VCV       0.126000
     53 H11         15.1680    10.9510     1.2890 ha         1 VCV       0.121000
     54 H12         14.7900    13.2260     2.2140 ha         1 VCV       0.131500
     55 H13         16.9190    17.6150     1.2620 hc         1 VCV       0.058033
     56 H14         17.9840    16.2300     0.9590 hc         1 VCV       0.058033
     57 H15         16.8780    16.7930    -0.3020 hc         1 VCV       0.058033
     58 H16         11.0930    15.3200     2.1650 ha         1 VCV       0.195000
     59 H17         10.8300    13.9860     6.2990 h4         1 VCV       0.205000
     60 H18         14.6100    12.5280     9.0850 h1         1 VCV       0.101200
     61 H19         14.0670    12.9530     7.4390 h1         1 VCV       0.101200
     62 H20         16.3070    11.7480     7.3870 hc         1 VCV       0.049367
     63 H21         16.4660    13.3950     6.7540 hc         1 VCV       0.049367
     64 H22         17.0150    13.0160     8.4050 hc         1 VCV       0.049367
     65 H23         15.9340    15.9210     7.4350 hn         1 VCV       0.507000
     66 H24          8.9920    13.2600     7.2340 h1         1 VCV       0.055033
     67 H25          7.4710    13.8790     6.5400 h1         1 VCV       0.055033
     68 H26          8.0510    12.2440     6.1090 h1         1 VCV       0.055033
     69 H27          9.7520    15.9070     0.3590 h1         1 VCV       0.080700
     70 H28          9.7070    12.8130    -0.1870 h1         1 VCV       0.055450
     71 H29         11.1580    13.8660    -0.1640 h1         1 VCV       0.055450
     72 H30          7.9270    15.7970    -1.3570 h1         1 VCV       0.055450
     73 H31          7.5860    14.0760    -0.9720 h1         1 VCV       0.055450
     74 H32          7.6020    14.3770     1.5680 hn         1 VCV       0.488000
     75 H33          9.5560    13.8010    -2.5070 hn         1 VCV       0.412000
@<TRIPOS>BOND
     1     1     2 ar  
     2     1     6 ar  
     3     1    31 1   
     4     2     3 ar  
     5     2    43 1   
     6     3     4 ar  
     7     3    24 1   
     8     4     5 ar  
     9     4    44 1   
    10     5     6 ar  
    11     5    22 1   
    12     6     7 1   
    13     7     8 2   
    14     7    45 1   
    15     8    22 1   
    16     8    46 1   
    17     9    10 1   
    18     9    15 1   
    19     9    22 1   
    20     9    23 1   
    21    10    11 ar  
    22    10    21 ar  
    23    11    12 ar  
    24    11    47 1   
    25    12    13 ar  
    26    12    48 1   
    27    13    14 ar  
    28    13    49 1   
    29    14    21 ar  
    30    14    50 1   
    31    15    19 ar  
    32    15    20 ar  
    33    16    17 ar  
    34    16    20 ar  
    35    16    51 1   
    36    17    18 ar  
    37    17    52 1   
    38    18    19 ar  
    39    18    53 1   
    40    19    54 1   
    41    23    55 1   
    42    23    56 1   
    43    23    57 1   
    44    24    25 1   
    45    24    28 2   
    46    25    26 2   
    47    25    58 1   
    48    26    27 1   
    49    26    41 1   
    50    27    35 1   
    51    27    40 2   
    52    28    35 1   
    53    28    59 1   
    54    29    30 1   
    55    29    32 1   
    56    29    60 1   
    57    29    61 1   
    58    30    62 1   
    59    30    63 1   
    60    30    64 1   
    61    31    32 1   
    62    31    65 1   
    63    32    33 2   
    64    32    34 2   
    65    35    36 1   
    66    36    66 1   
    67    36    67 1   
    68    36    68 1   
    69    37    38 1   
    70    37    39 1   
    71    37    41 1   
    72    37    69 1   
    73    38    42 1   
    74    38    70 1   
    75    38    71 1   
    76    39    42 1   
    77    39    72 1   
    78    39    73 1   
    79    41    74 1   
    80    42    75 1   
@<TRIPOS>SUBSTRUCTURE
     1 VCV         1 TEMP              0 ****  ****    0 ROOT
