@<TRIPOS>MOLECULE
VCW
   37    37     1     0     0
SMALL
bcc


@<TRIPOS>ATOM
      1 C4          19.5080    54.4560     2.8460 c3         1 VCW       0.093400
      2 C5          18.9660    55.7480     2.2570 c3         1 VCW       0.143100
      3 C6          17.5880    55.5230     1.6730 c3         1 VCW       0.138400
      4 C7          22.5380    54.4680     4.9340 c6         1 VCW       0.093100
      5 C8          23.6450    54.4430     3.8880 c6         1 VCW       0.107100
      6 C1          22.5660    51.0560     2.3950 c3         1 VCW      -0.235600
      7 C2          22.4660    52.5050     2.8280 c6         1 VCW       0.193100
      8 C3          21.2540    53.8810     4.3460 c6         1 VCW       0.320900
      9 C9          23.8080    53.0280     3.3440 c6         1 VCW       0.123100
     10 O1          20.5120    51.3360     0.7800 o          1 VCW      -0.695867
     11 S1          21.0320    50.3430     1.7440 s6         1 VCW       1.214800
     12 O2          20.1410    50.1100     2.8930 o          1 VCW      -0.695867
     13 O3          21.4660    49.0860     1.1000 o          1 VCW      -0.695867
     14 O4          21.4930    52.5950     3.8530 os         1 VCW      -0.399600
     15 O5          20.7880    54.7520     3.3700 os         1 VCW      -0.447600
     16 O6          18.8830    56.7550     3.2400 oh         1 VCW      -0.605800
     17 O7          17.1760    56.6920     1.0060 oh         1 VCW      -0.591800
     18 O8          22.3720    55.7930     5.3710 oh         1 VCW      -0.597800
     19 O9          24.8880    54.8240     4.4290 oh         1 VCW      -0.615800
     20 O10         24.7300    52.9850     2.2850 oh         1 VCW      -0.580800
     21 H1          18.8400    54.0940     3.6400 h1         1 VCW       0.065200
     22 H2          19.5680    53.6770     2.0790 h1         1 VCW       0.065200
     23 H3          19.6370    56.0560     1.4390 h1         1 VCW       0.053700
     24 H4          16.8950    55.2460     2.4790 h1         1 VCW       0.031200
     25 H5          17.6430    54.6640     0.9900 h1         1 VCW       0.031200
     26 H6          22.8370    53.8110     5.7630 h1         1 VCW       0.052700
     27 H7          23.3660    55.1040     3.0540 h1         1 VCW       0.068700
     28 H10         22.1690    53.1080     1.9600 h1         1 VCW       0.074700
     29 H11         20.4960    53.7450     5.1310 h2         1 VCW       0.059700
     30 H12         24.1300    52.3800     4.1760 h1         1 VCW       0.041700
     31 H13         19.7430    56.8110     3.6700 ho         1 VCW       0.415000
     32 H14         16.2880    56.5460     0.6700 ho         1 VCW       0.393000
     33 H15         21.8960    55.7870     6.2070 ho         1 VCW       0.402000
     34 H16         24.8460    55.7560     4.6650 ho         1 VCW       0.412000
     35 H17         25.5700    53.3300     2.6040 ho         1 VCW       0.404000
     36 H8          22.8980    50.4190     3.2190 h1         1 VCW       0.082700
     37 H9          23.3020    50.9760     1.5950 h1         1 VCW       0.082700
@<TRIPOS>BOND
     1     1     2 1   
     2     1    15 1   
     3     1    21 1   
     4     1    22 1   
     5     2     3 1   
     6     2    16 1   
     7     2    23 1   
     8     3    17 1   
     9     3    24 1   
    10     3    25 1   
    11     4     5 1   
    12     4     8 1   
    13     4    18 1   
    14     4    26 1   
    15     5     9 1   
    16     5    19 1   
    17     5    27 1   
    18     6     7 1   
    19     6    11 1   
    20     6    36 1   
    21     6    37 1   
    22     7     9 1   
    23     7    14 1   
    24     7    28 1   
    25     8    14 1   
    26     8    15 1   
    27     8    29 1   
    28     9    20 1   
    29     9    30 1   
    30    10    11 1   
    31    11    12 1   
    32    11    13 1   
    33    16    31 1   
    34    17    32 1   
    35    18    33 1   
    36    19    34 1   
    37    20    35 1   
@<TRIPOS>SUBSTRUCTURE
     1 VCW         1 TEMP              0 ****  ****    0 ROOT
