@<TRIPOS>MOLECULE
VCW
   37    37     1     0     0
SMALL
No Charge or Current Charge


@<TRIPOS>ATOM
      1 C4          19.3950    54.4360     3.1150 c3         1 VCW       0.116600
      2 C5          18.9650    55.4700     2.0430 c3         1 VCW       0.166300
      3 C6          17.4250    55.4640     1.7990 c3         1 VCW       0.161600
      4 C7          22.6880    54.4830     5.0770 c6         1 VCW       0.116300
      5 C8          23.7410    54.4360     3.9340 c6         1 VCW       0.130300
      6 C1          22.4230    51.0620     2.3860 c3         1 VCW      -0.346400
      7 C2          22.4340    52.5300     2.8760 c6         1 VCW       0.216300
      8 C3          21.3180    53.9180     4.5490 c6         1 VCW       0.367300
      9 C9          23.8490    52.9980     3.3530 c6         1 VCW       0.146300
     10 O1          21.1550    51.6010     0.2070 o          1 VCW      -0.695867
     11 S1          21.0710    50.6150     1.2940 s6         1 VCW       1.325600
     12 O2          19.8660    50.7250     2.1270 o          1 VCW      -0.695867
     13 O3          21.4030    49.2410     0.8910 o          1 VCW      -0.695867
     14 O4          21.5060    52.6010     3.9840 os         1 VCW      -0.446000
     15 O5          20.7270    54.7860     3.5590 os         1 VCW      -0.494000
     16 O6          19.4390    56.7660     2.4610 oh         1 VCW      -0.728000
     17 O7          17.0570    56.3150     0.6970 oh         1 VCW      -0.654000
     18 O8          22.5930    55.8360     5.5980 oh         1 VCW      -0.720000
     19 O9          25.0200    54.8910     4.4180 oh         1 VCW      -0.678000
     20 O10         24.8250    52.9870     2.2930 oh         1 VCW      -0.703000
     21 H1          18.6890    54.4610     3.9560 h1         1 VCW       0.065200
     22 H2          19.3680    53.4300     2.6770 h1         1 VCW       0.065200
     23 H3          19.4570    55.1850     1.1030 h1         1 VCW       0.053700
     24 H4          16.9150    55.7860     2.7180 h1         1 VCW       0.031200
     25 H5          17.1070    54.4320     1.5940 h1         1 VCW       0.031200
     26 H6          23.0260    53.8080     5.8780 h1         1 VCW       0.052700
     27 H7          23.3910    55.1030     3.1310 h1         1 VCW       0.068700
     28 H10         22.0940    53.1920     2.0650 h1         1 VCW       0.074700
     29 H11         20.6290    53.8360     5.4020 h2         1 VCW       0.059700
     30 H12         24.1760    52.3240     4.1590 h1         1 VCW       0.041700
     31 H13         20.2240    56.5400     3.0200 ho         1 VCW       0.514000
     32 H14         16.0750    56.3120     0.6480 ho         1 VCW       0.432000
     33 H15         21.8370    55.8580     6.2300 ho         1 VCW       0.501000
     34 H16         24.8000    55.6290     5.0330 ho         1 VCW       0.451000
     35 H17         25.5410    53.5870     2.6130 ho         1 VCW       0.503000
     36 H8          22.3920    50.3730     3.2350 h1         1 VCW       0.082700
     37 H9          23.3260    50.8680     1.8010 h1         1 VCW       0.082700
@<TRIPOS>BOND
     1     1     2 1   
     2     1    15 1   
     3     1    21 1   
     4     1    22 1   
     5     2     3 1   
     6     2    16 1   
     7     2    23 1   
     8     3    17 1   
     9     3    24 1   
    10     3    25 1   
    11     4     5 1   
    12     4     8 1   
    13     4    18 1   
    14     4    26 1   
    15     5     9 1   
    16     5    19 1   
    17     5    27 1   
    18     6     7 1   
    19     6    11 1   
    20     6    36 1   
    21     6    37 1   
    22     7     9 1   
    23     7    14 1   
    24     7    28 1   
    25     8    14 1   
    26     8    15 1   
    27     8    29 1   
    28     9    20 1   
    29     9    30 1   
    30    10    11 1   
    31    11    12 1   
    32    11    13 1   
    33    16    31 1   
    34    17    32 1   
    35    18    33 1   
    36    19    34 1   
    37    20    35 1   
@<TRIPOS>SUBSTRUCTURE
     1 VCW         1 TEMP              0 ****  ****    0 ROOT
