@<TRIPOS>MOLECULE
VCY
   48    51     1     0     0
SMALL
No Charge or Current Charge


@<TRIPOS>ATOM
      1 C10         21.0450    -5.1270     0.1330 ca         1 VCY       0.132100
      2 C13         20.4350    -6.3960     0.2420 ca         1 VCY      -0.166000
      3 C15         19.6830   -10.4290     2.6240 ca         1 VCY       0.060100
      4 C17         18.8140   -12.5430     3.4330 cp         1 VCY      -0.045000
      5 C20         17.3500   -15.2950     5.6750 ca         1 VCY       0.133100
      6 C22         15.0140   -15.8180     5.0650 c3         1 VCY       0.149900
      7 C24         19.6440   -14.8650     6.3660 ca         1 VCY      -0.083000
      8 C26         18.1600   -12.6900     2.1690 ca         1 VCY      -0.145000
      9 C28         19.0540   -10.5790     1.4150 ca         1 VCY      -0.098800
     10 C02         17.4740    -8.6940    -0.9590 c          1 VCY       0.726000
     11 C04         19.3550    -9.4200     0.5850 cc         1 VCY      -0.020400
     12 C05         20.1840    -8.6420     1.4100 cd         1 VCY       0.030900
     13 C06         20.8030    -7.2970     1.2660 ca         1 VCY       0.025200
     14 C07         21.7880    -6.8810     2.1930 ca         1 VCY      -0.138000
     15 C08         22.3980    -5.6210     2.0880 ca         1 VCY      -0.099000
     16 C09         22.0290    -4.7480     1.0560 ca         1 VCY      -0.160000
     17 C16         19.5940   -11.3730     3.6500 ca         1 VCY      -0.109000
     18 C18         18.6820   -13.5890     4.4980 cp         1 VCY       0.026000
     19 C19         17.4740   -14.3100     4.6710 ca         1 VCY      -0.188000
     20 C23         18.4380   -15.5670     6.5170 ca         1 VCY      -0.158000
     21 C25         19.7620   -13.8860     5.3660 ca         1 VCY      -0.144000
     22 C27         18.2740   -11.7140     1.1540 ca         1 VCY      -0.031000
     23 O01         16.5450    -9.4850    -0.8970 o          1 VCY      -0.727000
     24 O11         20.7080    -4.2200    -0.8530 os         1 VCY      -0.362100
     25 O14         20.3630    -9.2590     2.6260 os         1 VCY      -0.187200
     26 O29         17.3240    -7.4830    -0.9890 o          1 VCY      -0.727000
     27 H131        19.6520    -6.6670    -0.4480 ha         1 VCY       0.186000
     28 H222        14.2120   -16.4920     5.3910 h1         1 VCY       0.039033
     29 H221        14.6480   -14.7870     5.1530 h1         1 VCY       0.039033
     30 H223        15.2270   -16.0290     4.0100 h1         1 VCY       0.039033
     31 H241        20.4860   -15.0810     7.0190 ha         1 VCY       0.105000
     32 H261        17.5680   -13.5790     1.9680 ha         1 VCY       0.104000
     33 H032        18.9260   -10.2580    -1.2840 hc         1 VCY       0.037700
     34 H031        19.6200    -8.5890    -1.3490 hc         1 VCY       0.037700
     35 H071        22.1000    -7.5400     2.9990 ha         1 VCY       0.114000
     36 H081        23.1590    -5.3230     2.8070 ha         1 VCY       0.097000
     37 H091        22.5010    -3.7720     0.9750 ha         1 VCY       0.110000
     38 H123        19.6010    -3.6470    -2.5320 h1         1 VCY       0.048033
     39 H122        19.9760    -5.3800    -2.4420 h1         1 VCY       0.048033
     40 H121        18.7280    -4.6760    -1.3790 h1         1 VCY       0.048033
     41 H161        20.1040   -11.1990     4.5940 ha         1 VCY       0.118000
     42 H191        16.6350   -14.0800     4.0230 ha         1 VCY       0.125000
     43 H231        18.3460   -16.3250     7.2910 ha         1 VCY       0.116000
     44 H251        20.7080   -13.3620     5.2550 ha         1 VCY       0.118000
     45 H271        17.7690   -11.8420     0.1990 ha         1 VCY       0.150000
     46 C03         18.9050    -9.2510    -0.8510 c3         1 VCY      -0.170200
     47 C12         19.7040    -4.4980    -1.8470 c3         1 VCY       0.142900
     48 O21         16.1880   -16.0150     5.8740 os         1 VCY      -0.352100
@<TRIPOS>BOND
     1     1     2 ar  
     2     1    16 ar  
     3     1    24 1   
     4     2    13 ar  
     5     2    27 1   
     6     3     9 ar  
     7     3    17 ar  
     8     3    25 1   
     9     4     8 ar  
    10     4    17 ar  
    11     4    18 1   
    12     5    19 ar  
    13     5    20 ar  
    14     5    48 1   
    15     6    28 1   
    16     6    29 1   
    17     6    30 1   
    18     6    48 1   
    19     7    20 ar  
    20     7    21 ar  
    21     7    31 1   
    22     8    22 ar  
    23     8    32 1   
    24     9    11 1   
    25     9    22 ar  
    26    10    23 1   
    27    10    26 1   
    28    10    46 1   
    29    11    12 2   
    30    11    46 1   
    31    12    13 1   
    32    12    25 1   
    33    13    14 ar  
    34    14    15 ar  
    35    14    35 1   
    36    15    16 ar  
    37    15    36 1   
    38    16    37 1   
    39    17    41 1   
    40    18    19 ar  
    41    18    21 ar  
    42    19    42 1   
    43    20    43 1   
    44    21    44 1   
    45    22    45 1   
    46    24    47 1   
    47    33    46 1   
    48    34    46 1   
    49    38    47 1   
    50    39    47 1   
    51    40    47 1   
@<TRIPOS>SUBSTRUCTURE
     1 VCY         1 TEMP              0 ****  ****    0 ROOT
