@<TRIPOS>MOLECULE
VCY
   48    51     1     0     0
SMALL
bcc


@<TRIPOS>ATOM
      1 C10         20.8340    -5.1890     0.2500 ca         1 VCY       0.132100
      2 C13         20.2510    -6.4420     0.4130 ca         1 VCY      -0.184000
      3 C15         19.7060   -10.4460     2.6060 ca         1 VCY       0.060100
      4 C17         18.8520   -12.5080     3.3960 cp         1 VCY      -0.045000
      5 C20         17.2390   -15.0860     5.6290 ca         1 VCY       0.133100
      6 C22         14.9740   -15.4570     5.0190 c3         1 VCY       0.126700
      7 C24         19.5010   -14.7380     6.3600 ca         1 VCY      -0.101000
      8 C26         18.3380   -12.7480     2.1070 ca         1 VCY      -0.163000
      9 C28         19.2120   -10.6710     1.3230 ca         1 VCY      -0.098800
     10 C02         17.8170    -9.0460    -1.1810 c          1 VCY       0.936600
     11 C04         19.5820    -9.5210     0.5430 cc         1 VCY      -0.020400
     12 C05         20.2330    -8.6970     1.4070 cd         1 VCY       0.030900
     13 C06         20.8510    -7.3870     1.2500 ca         1 VCY       0.025200
     14 C07         22.0220    -7.0690     1.9380 ca         1 VCY      -0.156000
     15 C08         22.5910    -5.8140     1.7670 ca         1 VCY      -0.117000
     16 C09         22.0120    -4.8760     0.9310 ca         1 VCY      -0.178000
     17 C16         19.5510   -11.3310     3.6550 ca         1 VCY      -0.127000
     18 C18         18.6590   -13.5000     4.4740 cp         1 VCY       0.026000
     19 C19         17.4280   -14.1490     4.6180 ca         1 VCY      -0.206000
     20 C23         18.2870   -15.3830     6.5030 ca         1 VCY      -0.176000
     21 C25         19.6950   -13.7990     5.3540 ca         1 VCY      -0.162000
     22 C27         18.5100   -11.8510     1.0700 ca         1 VCY      -0.049000
     23 O01         17.1390    -9.9480    -1.7050 o          1 VCY      -0.832300
     24 O11         20.3200    -4.2190    -0.5300 os         1 VCY      -0.338900
     25 O14         20.3250    -9.2510     2.6570 os         1 VCY      -0.187200
     26 O29         17.4260    -7.9150    -0.8270 o          1 VCY      -0.832300
     27 H131        19.3140    -6.6990    -0.0680 ha         1 VCY       0.204000
     28 H222        14.1580   -16.0840     5.3710 h1         1 VCY       0.039033
     29 H221        14.6680   -14.4100     5.0940 h1         1 VCY       0.039033
     30 H223        15.1680   -15.6910     3.9690 h1         1 VCY       0.039033
     31 H241        20.3110   -14.9750     7.0370 ha         1 VCY       0.123000
     32 H261        17.8070   -13.6730     1.9180 ha         1 VCY       0.122000
     33 H032        19.6020   -10.2790    -1.4240 hc         1 VCY       0.037700
     34 H031        19.9340    -8.5550    -1.3160 hc         1 VCY       0.037700
     35 H071        22.4970    -7.7920     2.5870 ha         1 VCY       0.132000
     36 H081        23.5030    -5.5640     2.2930 ha         1 VCY       0.115000
     37 H091        22.4600    -3.8990     0.8050 ha         1 VCY       0.128000
     38 H123        18.8970    -3.5850    -1.8050 h1         1 VCY       0.048033
     39 H122        19.2180    -5.3260    -1.9140 h1         1 VCY       0.048033
     40 H121        18.2870    -4.6780    -0.5490 h1         1 VCY       0.048033
     41 H161        19.9370   -11.1090     4.6420 ha         1 VCY       0.136000
     42 H191        16.6220   -13.8910     3.9440 ha         1 VCY       0.143000
     43 H231        18.1370   -16.1140     7.2880 ha         1 VCY       0.134000
     44 H251        20.6600   -13.3200     5.2440 ha         1 VCY       0.136000
     45 H271        18.1050   -12.0560     0.0880 ha         1 VCY       0.168000
     46 C03         19.3140    -9.3580    -0.9130 c3         1 VCY      -0.170200
     47 C12         19.1200    -4.4800    -1.2280 c3         1 VCY       0.119700
     48 O21         16.0850   -15.7450     5.8420 os         1 VCY      -0.328900
@<TRIPOS>BOND
     1     1     2 ar  
     2     1    16 ar  
     3     1    24 1   
     4     2    13 ar  
     5     2    27 1   
     6     3     9 ar  
     7     3    17 ar  
     8     3    25 1   
     9     4     8 ar  
    10     4    17 ar  
    11     4    18 1   
    12     5    19 ar  
    13     5    20 ar  
    14     5    48 1   
    15     6    28 1   
    16     6    29 1   
    17     6    30 1   
    18     6    48 1   
    19     7    20 ar  
    20     7    21 ar  
    21     7    31 1   
    22     8    22 ar  
    23     8    32 1   
    24     9    11 1   
    25     9    22 ar  
    26    10    23 1   
    27    10    26 1   
    28    10    46 1   
    29    11    12 2   
    30    11    46 1   
    31    12    13 1   
    32    12    25 1   
    33    13    14 ar  
    34    14    15 ar  
    35    14    35 1   
    36    15    16 ar  
    37    15    36 1   
    38    16    37 1   
    39    17    41 1   
    40    18    19 ar  
    41    18    21 ar  
    42    19    42 1   
    43    20    43 1   
    44    21    44 1   
    45    22    45 1   
    46    24    47 1   
    47    33    46 1   
    48    34    46 1   
    49    38    47 1   
    50    39    47 1   
    51    40    47 1   
@<TRIPOS>SUBSTRUCTURE
     1 VCY         1 TEMP              0 ****  ****    0 ROOT
