@<TRIPOS>MOLECULE
VCZ
   25    25     1     0     0
SMALL
No Charge or Current Charge


@<TRIPOS>ATOM
      1 C9          17.2510    11.2470    -4.6290 c          1 VCZ       0.591100
      2 C7          16.9430     8.9140    -6.7240 ca         1 VCZ      -0.074000
      3 C5          16.6870     7.8500    -7.6210 ca         1 VCZ      -0.130600
      4 C2          14.7030     8.7050    -5.7830 ca         1 VCZ       0.046100
      5 C4          15.4230     7.2220    -7.5820 ca         1 VCZ      -0.080000
      6 C3          14.4400     7.6440    -6.6740 ca         1 VCZ      -0.192000
      7 C1          12.4460     8.5570    -4.7750 c3         1 VCZ       0.163900
      8 O1          13.7570     9.1460    -4.8740 os         1 VCZ      -0.388100
      9 O2          17.4900     6.4670    -9.3650 o          1 VCZ      -0.719500
     10 O3          18.8340     7.9610    -8.6090 o          1 VCZ      -0.719500
     11 C8          15.9590     9.3470    -5.8040 ca         1 VCZ      -0.083000
     12 N1          16.1690    10.4140    -4.8810 ns         1 VCZ      -0.139000
     13 C10         17.0010    12.2660    -3.5180 c3         1 VCZ      -0.180100
     14 O4          18.3230    11.2000    -5.2210 o          1 VCZ      -0.582100
     15 H1          17.9160     9.3940    -6.7560 ha         1 VCZ       0.167000
     16 H2          15.1970     6.4000    -8.2600 ha         1 VCZ       0.131000
     17 H3          13.4820     7.1330    -6.6780 ha         1 VCZ       0.092000
     18 H4          11.8630     9.0590    -3.9930 h1         1 VCZ       0.029033
     19 H5          11.9010     8.6560    -5.7220 h1         1 VCZ       0.029033
     20 H6          12.5160     7.4930    -4.5170 h1         1 VCZ       0.029033
     21 H8          15.3650    10.5960    -4.2950 hn         1 VCZ       0.149000
     22 H9          17.8660    12.9140    -3.3340 hc         1 VCZ       0.051700
     23 H10         16.1050    12.8470    -3.7620 hc         1 VCZ       0.051700
     24 H11         16.6920    11.7350    -2.6100 hc         1 VCZ       0.051700
     25 C6          17.7520     7.3910    -8.6070 c          1 VCZ       0.705600
@<TRIPOS>BOND
     1     1    12 1   
     2     1    13 1   
     3     1    14 2   
     4     2     3 ar  
     5     2    11 ar  
     6     2    15 1   
     7     3     5 ar  
     8     3    25 1   
     9     4     6 ar  
    10     4     8 1   
    11     4    11 ar  
    12     5     6 ar  
    13     5    16 1   
    14     6    17 1   
    15     7     8 1   
    16     7    18 1   
    17     7    19 1   
    18     7    20 1   
    19     9    25 1   
    20    10    25 1   
    21    11    12 1   
    22    12    21 1   
    23    13    22 1   
    24    13    23 1   
    25    13    24 1   
@<TRIPOS>SUBSTRUCTURE
     1 VCZ         1 TEMP              0 ****  ****    0 ROOT
