@<TRIPOS>MOLECULE
VCZ
   25    25     1     0     0
SMALL
abcg2


@<TRIPOS>ATOM
      1 C9          17.1770    11.2080    -4.6630 c          1 VCZ       0.591100
      2 C7          16.9210     8.9090    -6.6850 ca         1 VCZ      -0.074000
      3 C5          16.6680     7.8690    -7.5850 ca         1 VCZ      -0.130600
      4 C2          14.6910     8.6950    -5.7810 ca         1 VCZ       0.046100
      5 C4          15.4210     7.2550    -7.5670 ca         1 VCZ      -0.080000
      6 C3          14.4370     7.6580    -6.6690 ca         1 VCZ      -0.192000
      7 C1          12.5100     8.5610    -4.7930 c3         1 VCZ       0.163900
      8 O1          13.7990     9.1690    -4.8680 os         1 VCZ      -0.388100
      9 O2          17.4370     6.5290    -9.3920 o          1 VCZ      -0.719500
     10 O3          18.8730     7.9850    -8.4750 o          1 VCZ      -0.719500
     11 C8          15.9490     9.3370    -5.7880 ca         1 VCZ      -0.083000
     12 N1          16.1160    10.3770    -4.8580 ns         1 VCZ      -0.139000
     13 C10         16.9630    12.2200    -3.5590 c3         1 VCZ      -0.180100
     14 O4          18.2150    11.1590    -5.3150 o          1 VCZ      -0.582100
     15 H1          17.8840     9.3870    -6.6920 ha         1 VCZ       0.167000
     16 H2          15.2200     6.4520    -8.2620 ha         1 VCZ       0.131000
     17 H3          13.4760     7.1650    -6.6680 ha         1 VCZ       0.092000
     18 H4          11.9770     9.0880    -4.0070 h1         1 VCZ       0.029033
     19 H5          11.9740     8.6680    -5.7390 h1         1 VCZ       0.029033
     20 H6          12.5930     7.5020    -4.5380 h1         1 VCZ       0.029033
     21 H8          15.3150    10.5250    -4.2610 hn         1 VCZ       0.149000
     22 H9          17.8730    12.7980    -3.4210 hc         1 VCZ       0.051700
     23 H10         16.1430    12.8930    -3.8180 hc         1 VCZ       0.051700
     24 H11         16.7010    11.7220    -2.6230 hc         1 VCZ       0.051700
     25 C6          17.7490     7.4250    -8.5650 c          1 VCZ       0.705600
@<TRIPOS>BOND
     1     1    12 1   
     2     1    13 1   
     3     1    14 2   
     4     2     3 ar  
     5     2    11 ar  
     6     2    15 1   
     7     3     5 ar  
     8     3    25 1   
     9     4     6 ar  
    10     4     8 1   
    11     4    11 ar  
    12     5     6 ar  
    13     5    16 1   
    14     6    17 1   
    15     7     8 1   
    16     7    18 1   
    17     7    19 1   
    18     7    20 1   
    19     9    25 1   
    20    10    25 1   
    21    11    12 1   
    22    12    21 1   
    23    13    22 1   
    24    13    23 1   
    25    13    24 1   
@<TRIPOS>SUBSTRUCTURE
     1 VCZ         1 TEMP              0 ****  ****    0 ROOT
