@<TRIPOS>MOLECULE
VD1
   61    63     1     0     0
SMALL
No Charge or Current Charge


@<TRIPOS>ATOM
      1 O2           5.5520    -1.1490    -1.6060 oh         1 VD1      -0.653500
      2 C3           5.7060    -0.9190    -0.2040 c6         1 VD1       0.211500
      3 C2           5.9370     0.5740     0.0260 c2         1 VD1      -0.199400
      4 C28          7.1550     1.0480     0.3630 c2         1 VD1      -0.298000
      5 C1           4.6770     1.4370    -0.1620 c6         1 VD1       0.211500
      6 O1           4.9280     2.8060     0.1680 oh         1 VD1      -0.653500
      7 C4           4.4760    -1.4460     0.5820 c6         1 VD1      -0.032200
      8 C5           3.2340    -0.5770     0.3840 c2         1 VD1      -0.105400
      9 C10          3.5010     0.9000     0.6890 c6         1 VD1      -0.032200
     10 C6           2.0500    -1.1160    -0.0050 ce         1 VD1      -0.162000
     11 C7           0.7870    -0.3890    -0.2550 ce         1 VD1      -0.189000
     12 C8          -0.4350    -0.9620    -0.4470 c2         1 VD1      -0.079400
     13 C9          -0.7260    -2.4680    -0.4620 c6         1 VD1      -0.042200
     14 C11         -2.0390    -2.8360     0.2760 c6         1 VD1      -0.071400
     15 C12         -3.2170    -1.8850    -0.0720 c6         1 VD1      -0.063400
     16 C13         -2.8450    -0.3780     0.1480 c5         1 VD1      -0.035000
     17 C18         -2.5640    -0.1400     1.6730 c3         1 VD1      -0.078100
     18 C14         -1.6360    -0.0550    -0.8020 c5         1 VD1      -0.036500
     19 C15         -1.4780     1.4770    -0.6010 c5         1 VD1      -0.071400
     20 C17         -3.8630     0.6830    -0.4450 c5         1 VD1      -0.053700
     21 C16         -2.9590     1.9680    -0.6090 c5         1 VD1      -0.076400
     22 C20         -5.2150     0.9940     0.3000 c3         1 VD1      -0.047700
     23 C21         -6.0500     2.0460    -0.4860 c3         1 VD1      -0.090100
     24 C22         -6.0750    -0.2600     0.6350 c3         1 VD1      -0.073400
     25 C23         -7.4470     0.0160     1.2890 c3         1 VD1      -0.088100
     26 HO2          6.3160    -0.7070    -2.0330 ho         1 VD1       0.441500
     27 H3           6.5860    -1.4740     0.1540 h1         1 VD1       0.042700
     28 H281         8.0120     0.3820     0.4810 ha         1 VD1       0.167000
     29 H282         7.3540     2.1040     0.5430 ha         1 VD1       0.167000
     30 H1           4.3770     1.3720    -1.2190 h1         1 VD1       0.042700
     31 HO1          5.6620     3.0910    -0.4160 ho         1 VD1       0.441500
     32 H41          4.2780    -2.4890     0.3000 hc         1 VD1       0.058450
     33 H42          4.7230    -1.4670     1.6520 hc         1 VD1       0.058450
     34 H101         3.7490     1.0030     1.7540 hc         1 VD1       0.058450
     35 H102         2.6210     1.5300     0.5280 hc         1 VD1       0.058450
     36 H6           2.0230    -2.1910    -0.1760 ha         1 VD1       0.170000
     37 H7           0.8910     0.6880    -0.3200 ha         1 VD1       0.173000
     38 H91         -0.7990    -2.7970    -1.5070 hc         1 VD1       0.046700
     39 H92          0.0870    -3.0510    -0.0140 hc         1 VD1       0.046700
     40 H111        -2.3180    -3.8700     0.0310 hc         1 VD1       0.040200
     41 H112        -1.8630    -2.8280     1.3590 hc         1 VD1       0.040200
     42 H121        -3.5090    -2.0430    -1.1200 hc         1 VD1       0.040200
     43 H122        -4.0800    -2.1860     0.5280 hc         1 VD1       0.040200
     44 H181        -1.6280    -0.6070     2.0000 hc         1 VD1       0.034033
     45 H182        -2.4920     0.9220     1.9290 hc         1 VD1       0.034033
     46 H183        -3.3660    -0.5540     2.2940 hc         1 VD1       0.034033
     47 H14         -1.8920    -0.2560    -1.8510 hc         1 VD1       0.052700
     48 H151        -0.9930     1.7310     0.3480 hc         1 VD1       0.044700
     49 H152        -0.8880     1.9410    -1.4000 hc         1 VD1       0.044700
     50 H17         -4.1680     0.3440    -1.4430 hc         1 VD1       0.042700
     51 H161        -3.1190     2.6910     0.1990 hc         1 VD1       0.040700
     52 H162        -3.1940     2.4920    -1.5430 hc         1 VD1       0.040700
     53 H20         -4.9610     1.4600     1.2610 hc         1 VD1       0.046700
     54 H211        -6.9100     2.3930     0.0990 hc         1 VD1       0.031700
     55 H212        -5.4590     2.9380    -0.7220 hc         1 VD1       0.031700
     56 H213        -6.4200     1.6240    -1.4280 hc         1 VD1       0.031700
     57 H221        -6.2210    -0.8640    -0.2690 hc         1 VD1       0.038200
     58 H222        -5.5240    -0.8720     1.3530 hc         1 VD1       0.038200
     59 H231        -7.3400     0.6820     2.1540 hc         1 VD1       0.030700
     60 H232        -8.1440     0.4730     0.5770 hc         1 VD1       0.030700
     61 H233        -7.8960    -0.9220     1.6350 hc         1 VD1       0.030700
@<TRIPOS>BOND
     1     1     2 1   
     2     1    26 1   
     3     2     3 1   
     4     2     7 1   
     5     2    27 1   
     6     3     4 2   
     7     3     5 1   
     8     4    28 1   
     9     4    29 1   
    10     5     6 1   
    11     5     9 1   
    12     5    30 1   
    13     6    31 1   
    14     7     8 1   
    15     7    32 1   
    16     7    33 1   
    17     8     9 1   
    18     8    10 2   
    19     9    34 1   
    20     9    35 1   
    21    10    11 1   
    22    10    36 1   
    23    11    12 2   
    24    11    37 1   
    25    12    13 1   
    26    12    18 1   
    27    13    14 1   
    28    13    38 1   
    29    13    39 1   
    30    14    15 1   
    31    14    40 1   
    32    14    41 1   
    33    15    16 1   
    34    15    42 1   
    35    15    43 1   
    36    16    17 1   
    37    16    18 1   
    38    16    20 1   
    39    17    44 1   
    40    17    45 1   
    41    17    46 1   
    42    18    19 1   
    43    18    47 1   
    44    19    21 1   
    45    19    48 1   
    46    19    49 1   
    47    20    21 1   
    48    20    22 1   
    49    20    50 1   
    50    21    51 1   
    51    21    52 1   
    52    22    23 1   
    53    22    24 1   
    54    22    53 1   
    55    23    54 1   
    56    23    55 1   
    57    23    56 1   
    58    24    25 1   
    59    24    57 1   
    60    24    58 1   
    61    25    59 1   
    62    25    60 1   
    63    25    61 1   
@<TRIPOS>SUBSTRUCTURE
     1 VD1         1 TEMP              0 ****  ****    0 ROOT
