@<TRIPOS>MOLECULE
VD1
   61    63     1     0     0
SMALL
abcg2


@<TRIPOS>ATOM
      1 O2           5.2760    -1.2650    -1.4370 oh         1 VD1      -0.653500
      2 C3           5.5690    -0.9790    -0.0830 c6         1 VD1       0.211500
      3 C2           5.8340     0.4910     0.1270 c2         1 VD1      -0.199400
      4 C28          6.9930     0.9300     0.6050 c2         1 VD1      -0.298000
      5 C1           4.6620     1.3840    -0.1950 c6         1 VD1       0.211500
      6 O1           4.8980     2.7450     0.0590 oh         1 VD1      -0.653500
      7 C4           4.3540    -1.3940     0.7450 c6         1 VD1      -0.032200
      8 C5           3.1720    -0.5120     0.4630 c2         1 VD1      -0.105400
      9 C10          3.4520     0.9520     0.6420 c6         1 VD1      -0.032200
     10 C6           1.9950    -1.0350     0.0840 ce         1 VD1      -0.162000
     11 C7           0.7750    -0.3050    -0.2110 ce         1 VD1      -0.189000
     12 C8          -0.4060    -0.8390    -0.5600 c2         1 VD1      -0.079400
     13 C9          -0.6920    -2.3090    -0.7090 c6         1 VD1      -0.042200
     14 C11         -1.9130    -2.7340     0.1120 c6         1 VD1      -0.071400
     15 C12         -3.1340    -1.8480    -0.1350 c6         1 VD1      -0.063400
     16 C13         -2.8160    -0.3640     0.0750 c5         1 VD1      -0.035000
     17 C18         -2.4740    -0.0810     1.5390 c3         1 VD1      -0.078100
     18 C14         -1.6210    -0.0150    -0.8500 c5         1 VD1      -0.036500
     19 C15         -1.5560     1.5040    -0.8200 c5         1 VD1      -0.071400
     20 C17         -3.8650     0.6420    -0.4590 c5         1 VD1      -0.053700
     21 C16         -3.0350     1.9260    -0.7330 c5         1 VD1      -0.076400
     22 C20         -5.1280     0.9430     0.3640 c3         1 VD1      -0.047700
     23 C21         -5.9890     1.9590    -0.3890 c3         1 VD1      -0.090100
     24 C22         -5.9460    -0.3040     0.7070 c3         1 VD1      -0.073400
     25 C23         -7.2070    -0.0290     1.5200 c3         1 VD1      -0.088100
     26 HO2          6.0330    -0.9980    -1.9680 ho         1 VD1       0.441500
     27 H3           6.4420    -1.5510     0.2580 h1         1 VD1       0.042700
     28 H281         7.7980     0.2410     0.8300 ha         1 VD1       0.167000
     29 H282         7.1900     1.9770     0.7960 ha         1 VD1       0.167000
     30 H1           4.4010     1.2300    -1.2520 h1         1 VD1       0.042700
     31 HO1          5.5650     3.0580    -0.5610 ho         1 VD1       0.441500
     32 H41          4.1180    -2.4440     0.5570 hc         1 VD1       0.058450
     33 H42          4.6360    -1.3120     1.8010 hc         1 VD1       0.058450
     34 H101         3.6820     1.1480     1.6960 hc         1 VD1       0.058450
     35 H102         2.5960     1.5720     0.3760 hc         1 VD1       0.058450
     36 H6           1.9530    -2.1160    -0.0040 ha         1 VD1       0.170000
     37 H7           0.8320     0.7760    -0.1470 ha         1 VD1       0.173000
     38 H91         -0.9000    -2.5070    -1.7680 hc         1 VD1       0.046700
     39 H92          0.1640    -2.9290    -0.4420 hc         1 VD1       0.046700
     40 H111        -2.1610    -3.7710    -0.1280 hc         1 VD1       0.040200
     41 H112        -1.6550    -2.7220     1.1740 hc         1 VD1       0.040200
     42 H121        -3.4780    -1.9900    -1.1670 hc         1 VD1       0.040200
     43 H122        -3.9490    -2.1840     0.5070 hc         1 VD1       0.040200
     44 H181        -1.6040    -0.6490     1.8690 hc         1 VD1       0.034033
     45 H182        -2.2490     0.9710     1.7160 hc         1 VD1       0.034033
     46 H183        -3.3010    -0.3480     2.1980 hc         1 VD1       0.034033
     47 H14         -1.9520    -0.2990    -1.8630 hc         1 VD1       0.052700
     48 H151        -0.9990     1.8600     0.0490 hc         1 VD1       0.044700
     49 H152        -1.0550     1.9100    -1.7010 hc         1 VD1       0.044700
     50 H17         -4.2030     0.2440    -1.4280 hc         1 VD1       0.042700
     51 H161        -3.1870     2.6560     0.0660 hc         1 VD1       0.040700
     52 H162        -3.3630     2.4110    -1.6530 hc         1 VD1       0.040700
     53 H20         -4.8180     1.4060     1.3110 hc         1 VD1       0.046700
     54 H211        -6.8770     2.2420     0.1750 hc         1 VD1       0.031700
     55 H212        -5.4440     2.8780    -0.6010 hc         1 VD1       0.031700
     56 H213        -6.3230     1.5450    -1.3450 hc         1 VD1       0.031700
     57 H221        -6.2110    -0.8310    -0.2170 hc         1 VD1       0.038200
     58 H222        -5.3270    -0.9940     1.2820 hc         1 VD1       0.038200
     59 H231        -6.9760     0.5530     2.4150 hc         1 VD1       0.030700
     60 H232        -7.9600     0.5190     0.9560 hc         1 VD1       0.030700
     61 H233        -7.6650    -0.9640     1.8470 hc         1 VD1       0.030700
@<TRIPOS>BOND
     1     1     2 1   
     2     1    26 1   
     3     2     3 1   
     4     2     7 1   
     5     2    27 1   
     6     3     4 2   
     7     3     5 1   
     8     4    28 1   
     9     4    29 1   
    10     5     6 1   
    11     5     9 1   
    12     5    30 1   
    13     6    31 1   
    14     7     8 1   
    15     7    32 1   
    16     7    33 1   
    17     8     9 1   
    18     8    10 2   
    19     9    34 1   
    20     9    35 1   
    21    10    11 1   
    22    10    36 1   
    23    11    12 2   
    24    11    37 1   
    25    12    13 1   
    26    12    18 1   
    27    13    14 1   
    28    13    38 1   
    29    13    39 1   
    30    14    15 1   
    31    14    40 1   
    32    14    41 1   
    33    15    16 1   
    34    15    42 1   
    35    15    43 1   
    36    16    17 1   
    37    16    18 1   
    38    16    20 1   
    39    17    44 1   
    40    17    45 1   
    41    17    46 1   
    42    18    19 1   
    43    18    47 1   
    44    19    21 1   
    45    19    48 1   
    46    19    49 1   
    47    20    21 1   
    48    20    22 1   
    49    20    50 1   
    50    21    51 1   
    51    21    52 1   
    52    22    23 1   
    53    22    24 1   
    54    22    53 1   
    55    23    54 1   
    56    23    55 1   
    57    23    56 1   
    58    24    25 1   
    59    24    57 1   
    60    24    58 1   
    61    25    59 1   
    62    25    60 1   
    63    25    61 1   
@<TRIPOS>SUBSTRUCTURE
     1 VD1         1 TEMP              0 ****  ****    0 ROOT
