@<TRIPOS>MOLECULE
VD2
   76    78     1     0     0
SMALL
No Charge or Current Charge


@<TRIPOS>ATOM
      1 O3          -2.6850     0.3250     7.9050 oh         1 VD2      -0.660000
      2 C25         -1.4180    -0.1960     8.3100 c3         1 VD2       0.184000
      3 C27         -1.6870    -1.3530     9.2990 c3         1 VD2      -0.100100
      4 C26         -0.6420     0.9390     9.0210 c3         1 VD2      -0.100100
      5 C24         -0.6700    -0.7310     7.0520 c3         1 VD2      -0.102400
      6 C23         -0.3720     0.3060     5.9350 c3         1 VD2      -0.071400
      7 C22          0.3220    -0.3280     4.7020 c3         1 VD2      -0.077400
      8 C20          0.5080     0.6100     3.4650 c3         1 VD2      -0.046700
      9 C21          1.4610     1.7850     3.8050 c3         1 VD2      -0.087100
     10 C17          0.9870    -0.2310     2.1930 c5         1 VD2      -0.053700
     11 C16         -0.0680    -1.3240     1.7640 c5         1 VD2      -0.076400
     12 C13          1.2560     0.5330     0.8090 c5         1 VD2      -0.034000
     13 C18          0.0970     1.5220     0.3490 c3         1 VD2      -0.079100
     14 C14          1.3960    -0.7540    -0.0770 c5         1 VD2      -0.036500
     15 C15          0.0620    -1.4880     0.2180 c5         1 VD2      -0.070400
     16 C12          2.6180     1.3040     0.7270 c6         1 VD2      -0.063400
     17 C11          2.9750     1.7230    -0.7260 c6         1 VD2      -0.071400
     18 C9           2.9380     0.5370    -1.7250 c6         1 VD2      -0.042200
     19 C8           1.7050    -0.3550    -1.5380 c2         1 VD2      -0.078400
     20 C7           0.9440    -0.8800    -2.5380 ce         1 VD2      -0.189000
     21 C6           1.1640    -0.6740    -3.9850 ce         1 VD2      -0.172000
     22 C5           0.2940    -0.9650    -4.9840 c2         1 VD2      -0.097400
     23 C10         -1.1230    -1.5210    -4.8110 c6         1 VD2      -0.078700
     24 C4           0.6550    -0.7200    -6.4470 c6         1 VD2      -0.078700
     25 C3          -0.3790     0.1970    -7.1520 c6         1 VD2       0.176800
     26 O2          -0.0430     0.3030    -8.5430 oh         1 VD2      -0.659000
     27 C2          -1.8310    -0.3520    -6.9760 c6         1 VD2      -0.045700
     28 C28         -2.9000     0.5470    -7.6690 c3         1 VD2      -0.076100
     29 C1          -2.1680    -0.5900    -5.4710 c6         1 VD2       0.176800
     30 O1          -2.2150     0.6450    -4.7450 oh         1 VD2      -0.659000
     31 HO3         -3.1280    -0.3790     7.3870 ho         1 VD2       0.438000
     32 H271        -2.2530    -1.0020    10.1710 hc         1 VD2       0.040867
     33 H272        -2.2630    -2.1560     8.8230 hc         1 VD2       0.040867
     34 H273        -0.7440    -1.7820     9.6600 hc         1 VD2       0.040867
     35 H261         0.3690     0.6090     9.2870 hc         1 VD2       0.040867
     36 H262        -0.5570     1.8270     8.3840 hc         1 VD2       0.040867
     37 H263        -1.1530     1.2420     9.9430 hc         1 VD2       0.040867
     38 H241        -1.2550    -1.5510     6.6160 hc         1 VD2       0.038700
     39 H242         0.2810    -1.1750     7.3720 hc         1 VD2       0.038700
     40 H231         0.2650     1.0930     6.3500 hc         1 VD2       0.046200
     41 H232        -1.3080     0.7800     5.6150 hc         1 VD2       0.046200
     42 H221        -0.2790    -1.1950     4.4080 hc         1 VD2       0.036200
     43 H222         1.3000    -0.7230     5.0050 hc         1 VD2       0.036200
     44 H20         -0.4850     1.0830     3.3000 hc         1 VD2       0.048700
     45 H211         2.5040     1.4500     3.8440 hc         1 VD2       0.033033
     46 H212         1.3670     2.5820     3.0610 hc         1 VD2       0.033033
     47 H213         1.2180     2.2510     4.7650 hc         1 VD2       0.033033
     48 H17          1.9100    -0.7330     2.5100 hc         1 VD2       0.043700
     49 H161         0.1230    -2.2730     2.2780 hc         1 VD2       0.041200
     50 H162        -1.0910    -1.0290     2.0260 hc         1 VD2       0.041200
     51 H181         0.1320     1.7360    -0.7250 hc         1 VD2       0.035033
     52 H182        -0.8980     1.1180     0.5620 hc         1 VD2       0.035033
     53 H183         0.1640     2.4790     0.8790 hc         1 VD2       0.035033
     54 H14          2.2280    -1.3770     0.2760 hc         1 VD2       0.052700
     55 H151         0.0950    -2.5420    -0.0810 hc         1 VD2       0.042700
     56 H152        -0.7950    -1.0350    -0.2930 hc         1 VD2       0.042700
     57 H121         3.4240     0.6730     1.1270 hc         1 VD2       0.040700
     58 H122         2.6080     2.2070     1.3450 hc         1 VD2       0.040700
     59 H111         3.9740     2.1800    -0.7410 hc         1 VD2       0.040700
     60 H112         2.2880     2.5080    -1.0680 hc         1 VD2       0.040700
     61 H91          3.8360    -0.0780    -1.5840 hc         1 VD2       0.045700
     62 H92          3.0020     0.9450    -2.7390 hc         1 VD2       0.045700
     63 H7           0.1190    -1.5430    -2.2970 ha         1 VD2       0.168000
     64 H6           2.1350    -0.2680    -4.2650 ha         1 VD2       0.169000
     65 H101        -1.1770    -2.5150    -5.2760 hc         1 VD2       0.050950
     66 H102        -1.3950    -1.6710    -3.7610 hc         1 VD2       0.050950
     67 H41          1.6560    -0.2750    -6.5280 hc         1 VD2       0.050950
     68 H42          0.7080    -1.6870    -6.9670 hc         1 VD2       0.050950
     69 H3          -0.3280     1.1920    -6.6850 h1         1 VD2       0.041200
     70 HO2          0.8460     0.7190    -8.5870 ho         1 VD2       0.440500
     71 H2          -1.8890    -1.3250    -7.4840 hc         1 VD2       0.054700
     72 H281        -3.9100     0.1530    -7.5070 hc         1 VD2       0.039367
     73 H282        -2.8750     1.5730    -7.2820 hc         1 VD2       0.039367
     74 H283        -2.7410     0.5970    -8.7520 hc         1 VD2       0.039367
     75 H1          -3.1510    -1.0820    -5.4130 h1         1 VD2       0.041200
     76 HO1         -1.3210     0.7570    -4.3550 ho         1 VD2       0.440500
@<TRIPOS>BOND
     1     1     2 1   
     2     1    31 1   
     3     2     3 1   
     4     2     4 1   
     5     2     5 1   
     6     3    32 1   
     7     3    33 1   
     8     3    34 1   
     9     4    35 1   
    10     4    36 1   
    11     4    37 1   
    12     5     6 1   
    13     5    38 1   
    14     5    39 1   
    15     6     7 1   
    16     6    40 1   
    17     6    41 1   
    18     7     8 1   
    19     7    42 1   
    20     7    43 1   
    21     8     9 1   
    22     8    10 1   
    23     8    44 1   
    24     9    45 1   
    25     9    46 1   
    26     9    47 1   
    27    10    11 1   
    28    10    12 1   
    29    10    48 1   
    30    11    15 1   
    31    11    49 1   
    32    11    50 1   
    33    12    13 1   
    34    12    14 1   
    35    12    16 1   
    36    13    51 1   
    37    13    52 1   
    38    13    53 1   
    39    14    15 1   
    40    14    19 1   
    41    14    54 1   
    42    15    55 1   
    43    15    56 1   
    44    16    17 1   
    45    16    57 1   
    46    16    58 1   
    47    17    18 1   
    48    17    59 1   
    49    17    60 1   
    50    18    19 1   
    51    18    61 1   
    52    18    62 1   
    53    19    20 2   
    54    20    21 1   
    55    20    63 1   
    56    21    22 2   
    57    21    64 1   
    58    22    23 1   
    59    22    24 1   
    60    23    29 1   
    61    23    65 1   
    62    23    66 1   
    63    24    25 1   
    64    24    67 1   
    65    24    68 1   
    66    25    26 1   
    67    25    27 1   
    68    25    69 1   
    69    26    70 1   
    70    27    28 1   
    71    27    29 1   
    72    27    71 1   
    73    28    72 1   
    74    28    73 1   
    75    28    74 1   
    76    29    30 1   
    77    29    75 1   
    78    30    76 1   
@<TRIPOS>SUBSTRUCTURE
     1 VD2         1 TEMP              0 ****  ****    0 ROOT
