@<TRIPOS>MOLECULE
VD2
   76    78     1     0     0
SMALL
bcc


@<TRIPOS>ATOM
      1 O3          -2.7500     0.3480     7.7370 oh         1 VD2      -0.597800
      2 C25         -1.4470    -0.0560     8.1410 c3         1 VD2       0.160800
      3 C27         -1.5470    -1.1250     9.2290 c3         1 VD2      -0.100100
      4 C26         -0.7790     1.1900     8.7090 c3         1 VD2      -0.100100
      5 C24         -0.6660    -0.6280     6.9480 c3         1 VD2      -0.102400
      6 C23         -0.4690     0.3150     5.7680 c3         1 VD2      -0.071400
      7 C22          0.2780    -0.3600     4.6210 c3         1 VD2      -0.077400
      8 C20          0.5210     0.5350     3.3960 c3         1 VD2      -0.046700
      9 C21          1.4820     1.6670     3.7550 c3         1 VD2      -0.087100
     10 C17          1.0090    -0.3170     2.2150 c5         1 VD2      -0.053700
     11 C16         -0.0320    -1.3900     1.7960 c5         1 VD2      -0.076400
     12 C13          1.3690     0.3860     0.8840 c5         1 VD2      -0.034000
     13 C18          0.2840     1.3880     0.4850 c3         1 VD2      -0.079100
     14 C14          1.3740    -0.8300    -0.0750 c5         1 VD2      -0.036500
     15 C15          0.1040    -1.5900     0.2740 c5         1 VD2      -0.070400
     16 C12          2.7600     1.0240     0.8210 c6         1 VD2      -0.063400
     17 C11          3.1560     1.4010    -0.6060 c6         1 VD2      -0.071400
     18 C9           3.0140     0.2380    -1.5940 c6         1 VD2      -0.042200
     19 C8           1.6740    -0.4380    -1.4880 c2         1 VD2      -0.078400
     20 C7           0.8440    -0.6890    -2.5140 ce         1 VD2      -0.139000
     21 C6           1.0650    -0.3230    -3.9020 ce         1 VD2      -0.122000
     22 C5           0.3060    -0.6680    -4.9540 c2         1 VD2      -0.097400
     23 C10         -0.9320    -1.5090    -4.9070 c6         1 VD2      -0.078700
     24 C4           0.6480    -0.2120    -6.3420 c6         1 VD2      -0.078700
     25 C3          -0.5230     0.5180    -7.0070 c6         1 VD2       0.153600
     26 O2          -0.2290     0.8210    -8.3570 oh         1 VD2      -0.596800
     27 C2          -1.7860    -0.3410    -6.9810 c6         1 VD2      -0.045700
     28 C28         -2.9740     0.3470    -7.6470 c3         1 VD2      -0.076100
     29 C1          -2.1130    -0.7800    -5.5530 c6         1 VD2       0.153600
     30 O1          -2.4730     0.3660    -4.8110 oh         1 VD2      -0.596800
     31 HO3         -3.2000    -0.4200     7.3690 ho         1 VD2       0.399000
     32 H271        -2.1130    -0.7600    10.0880 hc         1 VD2       0.040867
     33 H272        -2.0440    -2.0240     8.8550 hc         1 VD2       0.040867
     34 H273        -0.5580    -1.4210     9.5820 hc         1 VD2       0.040867
     35 H261         0.2550     0.9790     8.9840 hc         1 VD2       0.040867
     36 H262        -0.7730     2.0120     7.9930 hc         1 VD2       0.040867
     37 H263        -1.2990     1.5320     9.6060 hc         1 VD2       0.040867
     38 H241        -1.1820    -1.5340     6.6050 hc         1 VD2       0.038700
     39 H242         0.3140    -0.9640     7.3050 hc         1 VD2       0.038700
     40 H231         0.0780     1.2010     6.0980 hc         1 VD2       0.046200
     41 H232        -1.4390     0.6680     5.4060 hc         1 VD2       0.046200
     42 H221        -0.2880    -1.2480     4.3250 hc         1 VD2       0.036200
     43 H222         1.2460    -0.7300     4.9840 hc         1 VD2       0.036200
     44 H20         -0.4420     0.9800     3.1150 hc         1 VD2       0.048700
     45 H211         2.4870     1.2830     3.9460 hc         1 VD2       0.033033
     46 H212         1.5560     2.4150     2.9680 hc         1 VD2       0.033033
     47 H213         1.1570     2.1910     4.6540 hc         1 VD2       0.033033
     48 H17          1.9200    -0.8350     2.5470 hc         1 VD2       0.043700
     49 H161         0.1330    -2.3230     2.3340 hc         1 VD2       0.041200
     50 H162        -1.0420    -1.0600     2.0540 hc         1 VD2       0.041200
     51 H181         0.4280     1.7600    -0.5290 hc         1 VD2       0.035033
     52 H182        -0.7140     0.9490     0.5210 hc         1 VD2       0.035033
     53 H183         0.2780     2.2510     1.1530 hc         1 VD2       0.035033
     54 H14          2.2220    -1.4520     0.2540 hc         1 VD2       0.052700
     55 H151         0.1680    -2.6430    -0.0080 hc         1 VD2       0.042700
     56 H152        -0.7610    -1.1790    -0.2500 hc         1 VD2       0.042700
     57 H121         3.4870     0.3080     1.2220 hc         1 VD2       0.040700
     58 H122         2.8240     1.9090     1.4550 hc         1 VD2       0.040700
     59 H111         4.1900     1.7540    -0.6150 hc         1 VD2       0.040700
     60 H112         2.5500     2.2430    -0.9520 hc         1 VD2       0.040700
     61 H91          3.7840    -0.5100    -1.3640 hc         1 VD2       0.045700
     62 H92          3.2270     0.5880    -2.6040 hc         1 VD2       0.045700
     63 H7          -0.0760    -1.2170    -2.2890 ha         1 VD2       0.118000
     64 H6           1.9340     0.2900    -4.1170 ha         1 VD2       0.119000
     65 H101        -0.7600    -2.4360    -5.4650 hc         1 VD2       0.050950
     66 H102        -1.2010    -1.8130    -3.8930 hc         1 VD2       0.050950
     67 H41          1.5290     0.4370    -6.3270 hc         1 VD2       0.050950
     68 H42          0.8990    -1.0820    -6.9630 hc         1 VD2       0.050950
     69 H3          -0.7150     1.4430    -6.4460 h1         1 VD2       0.041200
     70 HO2          0.5150     1.4320    -8.3700 ho         1 VD2       0.401500
     71 H2          -1.5670    -1.2630    -7.5360 hc         1 VD2       0.054700
     72 H281        -3.8640    -0.2840    -7.5950 hc         1 VD2       0.039367
     73 H282        -3.2100     1.2970    -7.1660 hc         1 VD2       0.039367
     74 H283        -2.7790     0.5450    -8.7000 hc         1 VD2       0.039367
     75 H1          -2.9570    -1.4840    -5.6050 h1         1 VD2       0.041200
     76 HO1         -2.6290     0.1010    -3.9000 ho         1 VD2       0.401500
@<TRIPOS>BOND
     1     1     2 1   
     2     1    31 1   
     3     2     3 1   
     4     2     4 1   
     5     2     5 1   
     6     3    32 1   
     7     3    33 1   
     8     3    34 1   
     9     4    35 1   
    10     4    36 1   
    11     4    37 1   
    12     5     6 1   
    13     5    38 1   
    14     5    39 1   
    15     6     7 1   
    16     6    40 1   
    17     6    41 1   
    18     7     8 1   
    19     7    42 1   
    20     7    43 1   
    21     8     9 1   
    22     8    10 1   
    23     8    44 1   
    24     9    45 1   
    25     9    46 1   
    26     9    47 1   
    27    10    11 1   
    28    10    12 1   
    29    10    48 1   
    30    11    15 1   
    31    11    49 1   
    32    11    50 1   
    33    12    13 1   
    34    12    14 1   
    35    12    16 1   
    36    13    51 1   
    37    13    52 1   
    38    13    53 1   
    39    14    15 1   
    40    14    19 1   
    41    14    54 1   
    42    15    55 1   
    43    15    56 1   
    44    16    17 1   
    45    16    57 1   
    46    16    58 1   
    47    17    18 1   
    48    17    59 1   
    49    17    60 1   
    50    18    19 1   
    51    18    61 1   
    52    18    62 1   
    53    19    20 2   
    54    20    21 1   
    55    20    63 1   
    56    21    22 2   
    57    21    64 1   
    58    22    23 1   
    59    22    24 1   
    60    23    29 1   
    61    23    65 1   
    62    23    66 1   
    63    24    25 1   
    64    24    67 1   
    65    24    68 1   
    66    25    26 1   
    67    25    27 1   
    68    25    69 1   
    69    26    70 1   
    70    27    28 1   
    71    27    29 1   
    72    27    71 1   
    73    28    72 1   
    74    28    73 1   
    75    28    74 1   
    76    29    30 1   
    77    29    75 1   
    78    30    76 1   
@<TRIPOS>SUBSTRUCTURE
     1 VD2         1 TEMP              0 ****  ****    0 ROOT
