@<TRIPOS>MOLECULE
VD3
   72    74     1     0     0
SMALL
No Charge or Current Charge


@<TRIPOS>ATOM
      1 O           -6.3240    -3.5280    -1.0450 oh         1 VD3      -0.660000
      2 C1          -7.6230    -0.0990    -0.0530 c6         1 VD3      -0.038200
      3 C2          -7.6360    -1.6290    -0.2630 c6         1 VD3      -0.070400
      4 C3          -6.3020    -2.1060    -0.8780 c6         1 VD3       0.173300
      5 C4          -5.1020    -1.6900     0.0110 c6         1 VD3      -0.073200
      6 C5          -5.1080    -0.1790     0.3230 ce         1 VD3      -0.074200
      7 C7          -3.9970     0.6160     0.2650 cf         1 VD3      -0.166000
      8 C8          -2.6290     0.2170    -0.0820 cf         1 VD3      -0.194000
      9 C9          -1.6000     1.0390    -0.4390 c2         1 VD3      -0.075400
     10 C10         -1.7330     2.5570    -0.6180 c6         1 VD3      -0.043200
     11 C6          -6.4140     0.3330     0.7820 ce         1 VD3      -0.080200
     12 C11         -0.6460     3.3320     0.1690 c6         1 VD3      -0.071400
     13 C12          0.7810     2.7710    -0.0880 c6         1 VD3      -0.063400
     14 C13          0.8640     1.2260     0.1610 c5         1 VD3      -0.035000
     15 C14         -0.1840     0.5360    -0.7800 c5         1 VD3      -0.036500
     16 C15          0.1010    -0.9680    -0.5390 c5         1 VD3      -0.071400
     17 C16          1.6600    -1.0070    -0.5260 c5         1 VD3      -0.077400
     18 C17          2.1480     0.4930    -0.4110 c5         1 VD3      -0.053700
     19 C18          0.6560     0.9580     1.6930 c3         1 VD3      -0.079100
     20 C19         -6.5540     1.1190     1.8710 c2         1 VD3      -0.312000
     21 C20          3.5270     0.6370     0.3360 c3         1 VD3      -0.046700
     22 C21          3.9530     2.1070     0.5900 c3         1 VD3      -0.087100
     23 C22          4.6560    -0.1480    -0.4060 c3         1 VD3      -0.076400
     24 C23          5.9680    -0.3570     0.3940 c3         1 VD3      -0.074400
     25 C24          6.9750    -1.2760    -0.3390 c3         1 VD3      -0.073400
     26 C25          8.2640    -1.6060     0.4630 c3         1 VD3      -0.060700
     27 C26          9.1170    -2.6640    -0.2740 c3         1 VD3      -0.086600
     28 C27          9.1110    -0.3520     0.7900 c3         1 VD3      -0.086600
     29 HO          -5.4970    -3.7690    -1.5180 ho         1 VD3       0.441000
     30 H11         -7.5930     0.4100    -1.0260 hc         1 VD3       0.048700
     31 H12         -8.5600     0.2120     0.4300 hc         1 VD3       0.048700
     32 H21         -8.4730    -1.9070    -0.9170 hc         1 VD3       0.055200
     33 H22         -7.8050    -2.1310     0.7000 hc         1 VD3       0.055200
     34 H3          -6.1860    -1.6220    -1.8590 h1         1 VD3       0.031700
     35 H41         -4.1810    -1.9930    -0.5000 hc         1 VD3       0.053200
     36 H42         -5.1300    -2.2480     0.9570 hc         1 VD3       0.053200
     37 H7          -4.1520     1.6610     0.5290 ha         1 VD3       0.173000
     38 H8          -2.4340    -0.8510    -0.0300 ha         1 VD3       0.171000
     39 H101        -1.6290     2.7890    -1.6870 hc         1 VD3       0.046700
     40 H102        -2.7200     2.9380    -0.3350 hc         1 VD3       0.046700
     41 H111        -0.6790     4.3940    -0.1100 hc         1 VD3       0.040700
     42 H112        -0.8770     3.2980     1.2420 hc         1 VD3       0.040700
     43 H121         1.0730     2.9980    -1.1230 hc         1 VD3       0.041200
     44 H122         1.4780     3.3170     0.5540 hc         1 VD3       0.041200
     45 H14          0.0170     0.7780    -1.8320 hc         1 VD3       0.053700
     46 H151        -0.3240    -1.6010    -1.3270 hc         1 VD3       0.043200
     47 H152        -0.2990    -1.3300     0.4140 hc         1 VD3       0.043200
     48 H161         2.0490    -1.4730    -1.4390 hc         1 VD3       0.041700
     49 H162         2.0160    -1.6190     0.3110 hc         1 VD3       0.041700
     50 H17          2.3410     0.8740    -1.4220 hc         1 VD3       0.044700
     51 H181        -0.3710     1.1660     2.0130 hc         1 VD3       0.034367
     52 H182         0.8720    -0.0780     1.9740 hc         1 VD3       0.034367
     53 H183         1.3180     1.5870     2.2980 hc         1 VD3       0.034367
     54 H191        -7.5280     1.4840     2.1970 ha         1 VD3       0.165500
     55 H192        -5.6980     1.4170     2.4760 ha         1 VD3       0.165500
     56 H20          3.4200     0.1710     1.3230 hc         1 VD3       0.046700
     57 H211         3.8820     2.7020    -0.3290 hc         1 VD3       0.032700
     58 H212         3.3270     2.5640     1.3620 hc         1 VD3       0.032700
     59 H213         4.9790     2.1820     0.9620 hc         1 VD3       0.032700
     60 H221         4.8870     0.3610    -1.3500 hc         1 VD3       0.037200
     61 H222         4.2830    -1.1400    -0.6780 hc         1 VD3       0.037200
     62 H231         5.7290    -0.7930     1.3710 hc         1 VD3       0.038700
     63 H232         6.4450     0.6110     0.5770 hc         1 VD3       0.038700
     64 H241         7.2520    -0.8140    -1.2960 hc         1 VD3       0.036200
     65 H242         6.4670    -2.2180    -0.5840 hc         1 VD3       0.036200
     66 H25          7.9560    -2.0510     1.4180 hc         1 VD3       0.043700
     67 H261         9.9960    -2.9370     0.3210 hc         1 VD3       0.031533
     68 H262         8.5350    -3.5760    -0.4520 hc         1 VD3       0.031533
     69 H263         9.4620    -2.2810    -1.2420 hc         1 VD3       0.031533
     70 H271         8.5650     0.3370     1.4440 hc         1 VD3       0.031533
     71 H272        10.0340    -0.6350     1.3110 hc         1 VD3       0.031533
     72 H273         9.3860     0.1830    -0.1260 hc         1 VD3       0.031533
@<TRIPOS>BOND
     1     1     4 1   
     2     1    29 1   
     3     2     3 1   
     4     2    11 1   
     5     2    30 1   
     6     2    31 1   
     7     3     4 1   
     8     3    32 1   
     9     3    33 1   
    10     4     5 1   
    11     4    34 1   
    12     5     6 1   
    13     5    35 1   
    14     5    36 1   
    15     6     7 2   
    16     6    11 1   
    17     7     8 1   
    18     7    37 1   
    19     8     9 2   
    20     8    38 1   
    21     9    10 1   
    22     9    15 1   
    23    10    12 1   
    24    10    39 1   
    25    10    40 1   
    26    11    20 2   
    27    12    13 1   
    28    12    41 1   
    29    12    42 1   
    30    13    14 1   
    31    13    43 1   
    32    13    44 1   
    33    14    15 1   
    34    14    18 1   
    35    14    19 1   
    36    15    16 1   
    37    15    45 1   
    38    16    17 1   
    39    16    46 1   
    40    16    47 1   
    41    17    18 1   
    42    17    48 1   
    43    17    49 1   
    44    18    21 1   
    45    18    50 1   
    46    19    51 1   
    47    19    52 1   
    48    19    53 1   
    49    20    54 1   
    50    20    55 1   
    51    21    22 1   
    52    21    23 1   
    53    21    56 1   
    54    22    57 1   
    55    22    58 1   
    56    22    59 1   
    57    23    24 1   
    58    23    60 1   
    59    23    61 1   
    60    24    25 1   
    61    24    62 1   
    62    24    63 1   
    63    25    26 1   
    64    25    64 1   
    65    25    65 1   
    66    26    27 1   
    67    26    28 1   
    68    26    66 1   
    69    27    67 1   
    70    27    68 1   
    71    27    69 1   
    72    28    70 1   
    73    28    71 1   
    74    28    72 1   
@<TRIPOS>SUBSTRUCTURE
     1 VD3         1 TEMP              0 ****  ****    0 ROOT
