@<TRIPOS>MOLECULE
VD3
   72    74     1     0     0
SMALL
abcg2


@<TRIPOS>ATOM
      1 O           -6.0090    -3.6580    -0.4720 oh         1 VD3      -0.660000
      2 C1          -7.4580    -0.2460    -0.0750 c6         1 VD3      -0.038200
      3 C2          -7.3740    -1.7690    -0.0190 c6         1 VD3      -0.070400
      4 C3          -6.0290    -2.2480    -0.5360 c6         1 VD3       0.173300
      5 C4          -4.8930    -1.6320     0.2830 c6         1 VD3      -0.073200
      6 C5          -4.9720    -0.1280     0.3070 ce         1 VD3      -0.074200
      7 C7          -3.9490     0.7060     0.0410 cf         1 VD3      -0.166000
      8 C8          -2.5920     0.3260    -0.2970 cf         1 VD3      -0.194000
      9 C9          -1.5780     1.1650    -0.5700 c2         1 VD3      -0.075400
     10 C10         -1.6660     2.6670    -0.5860 c6         1 VD3      -0.043200
     11 C6          -6.3070     0.4070     0.6460 ce         1 VD3      -0.080200
     12 C11         -0.5910     3.3120     0.2960 c6         1 VD3      -0.071400
     13 C12          0.8120     2.7750     0.0140 c6         1 VD3      -0.063400
     14 C13          0.8610     1.2480     0.1000 c5         1 VD3      -0.035000
     15 C14         -0.1940     0.6960    -0.8940 c5         1 VD3      -0.036500
     16 C15          0.1210    -0.7870    -0.9960 c5         1 VD3      -0.071400
     17 C16          1.6550    -0.8450    -0.8600 c5         1 VD3      -0.077400
     18 C17          2.1390     0.5730    -0.4560 c5         1 VD3      -0.053700
     19 C18          0.5790     0.7690     1.5250 c3         1 VD3      -0.079100
     20 C19         -6.4850     1.3880     1.5320 c2         1 VD3      -0.312000
     21 C20          3.3950     0.5190     0.4280 c3         1 VD3      -0.046700
     22 C21          3.8550     1.8960     0.8980 c3         1 VD3      -0.087100
     23 C22          4.5210    -0.2060    -0.3230 c3         1 VD3      -0.076400
     24 C23          5.8000    -0.4360     0.4760 c3         1 VD3      -0.074400
     25 C24          6.8010    -1.2990    -0.2830 c3         1 VD3      -0.073400
     26 C25          8.0950    -1.6070     0.4740 c3         1 VD3      -0.060700
     27 C26          8.9360    -2.6130    -0.3060 c3         1 VD3      -0.086600
     28 C27          8.9120    -0.3510     0.7620 c3         1 VD3      -0.086600
     29 HO          -5.1660    -3.9640    -0.8210 ho         1 VD3       0.441000
     30 H11         -7.4340     0.0670    -1.1250 hc         1 VD3       0.048700
     31 H12         -8.4090     0.0980     0.3340 hc         1 VD3       0.048700
     32 H21         -8.1810    -2.2060    -0.6110 hc         1 VD3       0.055200
     33 H22         -7.5080    -2.1100     1.0130 hc         1 VD3       0.055200
     34 H3          -5.9200    -1.9090    -1.5770 h1         1 VD3       0.031700
     35 H41         -3.9340    -1.9790    -0.1050 hc         1 VD3       0.053200
     36 H42         -4.9740    -2.0060     1.3110 hc         1 VD3       0.053200
     37 H7          -4.1690     1.7670     0.0810 ha         1 VD3       0.173000
     38 H8          -2.3810    -0.7370    -0.3360 ha         1 VD3       0.171000
     39 H101        -1.5110     3.0010    -1.6190 hc         1 VD3       0.046700
     40 H102        -2.6500     3.0320    -0.2900 hc         1 VD3       0.046700
     41 H111        -0.6070     4.3940     0.1400 hc         1 VD3       0.040700
     42 H112        -0.8450     3.1550     1.3480 hc         1 VD3       0.040700
     43 H121         1.1240     3.0790    -0.9920 hc         1 VD3       0.041200
     44 H122         1.5130     3.2410     0.7090 hc         1 VD3       0.041200
     45 H14          0.0640     1.1490    -1.8650 hc         1 VD3       0.053700
     46 H151        -0.2350    -1.2180    -1.9330 hc         1 VD3       0.043200
     47 H152        -0.3550    -1.3510    -0.1910 hc         1 VD3       0.043200
     48 H161         2.1270    -1.1670    -1.7890 hc         1 VD3       0.041700
     49 H162         1.9420    -1.5750    -0.0990 hc         1 VD3       0.041700
     50 H17          2.4090     1.1200    -1.3710 hc         1 VD3       0.044700
     51 H181        -0.4390     0.9950     1.8450 hc         1 VD3       0.034367
     52 H182         0.7130    -0.3090     1.6270 hc         1 VD3       0.034367
     53 H183         1.2540     1.2460     2.2370 hc         1 VD3       0.034367
     54 H191        -7.4720     1.7770     1.7520 ha         1 VD3       0.165500
     55 H192        -5.6540     1.8310     2.0670 ha         1 VD3       0.165500
     56 H20          3.1530    -0.0810     1.3160 hc         1 VD3       0.046700
     57 H211         4.0010     2.5760     0.0540 hc         1 VD3       0.032700
     58 H212         3.1380     2.3600     1.5740 hc         1 VD3       0.032700
     59 H213         4.7990     1.8410     1.4410 hc         1 VD3       0.032700
     60 H221         4.7610     0.3540    -1.2350 hc         1 VD3       0.037200
     61 H222         4.1570    -1.1810    -0.6600 hc         1 VD3       0.037200
     62 H231         5.5540    -0.9210     1.4280 hc         1 VD3       0.038700
     63 H232         6.2620     0.5200     0.7330 hc         1 VD3       0.038700
     64 H241         7.0530    -0.8130    -1.2340 hc         1 VD3       0.036200
     65 H242         6.3180    -2.2450    -0.5500 hc         1 VD3       0.036200
     66 H25          7.8200    -2.0640     1.4330 hc         1 VD3       0.043700
     67 H261         9.8530    -2.8680     0.2290 hc         1 VD3       0.031533
     68 H262         8.3870    -3.5380    -0.4870 hc         1 VD3       0.031533
     69 H263         9.2240    -2.2030    -1.2770 hc         1 VD3       0.031533
     70 H271         8.3680     0.3720     1.3690 hc         1 VD3       0.031533
     71 H272         9.8320    -0.5980     1.2960 hc         1 VD3       0.031533
     72 H273         9.1980     0.1440    -0.1700 hc         1 VD3       0.031533
@<TRIPOS>BOND
     1     1     4 1   
     2     1    29 1   
     3     2     3 1   
     4     2    11 1   
     5     2    30 1   
     6     2    31 1   
     7     3     4 1   
     8     3    32 1   
     9     3    33 1   
    10     4     5 1   
    11     4    34 1   
    12     5     6 1   
    13     5    35 1   
    14     5    36 1   
    15     6     7 2   
    16     6    11 1   
    17     7     8 1   
    18     7    37 1   
    19     8     9 2   
    20     8    38 1   
    21     9    10 1   
    22     9    15 1   
    23    10    12 1   
    24    10    39 1   
    25    10    40 1   
    26    11    20 2   
    27    12    13 1   
    28    12    41 1   
    29    12    42 1   
    30    13    14 1   
    31    13    43 1   
    32    13    44 1   
    33    14    15 1   
    34    14    18 1   
    35    14    19 1   
    36    15    16 1   
    37    15    45 1   
    38    16    17 1   
    39    16    46 1   
    40    16    47 1   
    41    17    18 1   
    42    17    48 1   
    43    17    49 1   
    44    18    21 1   
    45    18    50 1   
    46    19    51 1   
    47    19    52 1   
    48    19    53 1   
    49    20    54 1   
    50    20    55 1   
    51    21    22 1   
    52    21    23 1   
    53    21    56 1   
    54    22    57 1   
    55    22    58 1   
    56    22    59 1   
    57    23    24 1   
    58    23    60 1   
    59    23    61 1   
    60    24    25 1   
    61    24    62 1   
    62    24    63 1   
    63    25    26 1   
    64    25    64 1   
    65    25    65 1   
    66    26    27 1   
    67    26    28 1   
    68    26    66 1   
    69    27    67 1   
    70    27    68 1   
    71    27    69 1   
    72    28    70 1   
    73    28    71 1   
    74    28    72 1   
@<TRIPOS>SUBSTRUCTURE
     1 VD3         1 TEMP              0 ****  ****    0 ROOT
