@<TRIPOS>MOLECULE
VD4
   72    74     1     0     0
SMALL
No Charge or Current Charge


@<TRIPOS>ATOM
      1 O3           4.1270     8.2090     4.2190 oh         1 VD4      -0.659000
      2 C25          5.4780     8.4340     3.8120 c3         1 VD4       0.184000
      3 C26          5.4890     9.6960     2.9180 c3         1 VD4      -0.100100
      4 C27          6.3240     8.6790     5.0840 c3         1 VD4      -0.100100
      5 C24          5.9700     7.1990     2.9990 c3         1 VD4      -0.104400
      6 C23          5.9670     5.8390     3.7480 c3         1 VD4      -0.068400
      7 C22          6.4180     4.6590     2.8540 c3         1 VD4      -0.039200
      8 C20          6.2760     3.2960     3.5320 c2         1 VD4      -0.107400
      9 C21          7.2780     3.1470     4.6750 c3         1 VD4      -0.055900
     10 C17          5.3520     2.3460     3.2370 c2         1 VD4      -0.111400
     11 C13          4.2350     2.3720     2.1740 c5         1 VD4       0.003200
     12 C18          3.1620     3.4410     2.5510 c3         1 VD4      -0.078100
     13 C12          4.6320     2.5390     0.6450 c6         1 VD4      -0.060400
     14 C11          3.4470     2.2630    -0.3760 c6         1 VD4      -0.073400
     15 C9           2.6970     0.9150    -0.1240 c6         1 VD4      -0.041200
     16 C16          5.0830     1.1110     4.1490 c5         1 VD4      -0.042200
     17 C15          3.6460     0.6310     3.7820 c5         1 VD4      -0.071400
     18 C14          3.7160     0.8750     2.2540 c5         1 VD4      -0.038500
     19 C8           2.4580     0.6330     1.3660 c2         1 VD4      -0.077400
     20 C7           1.3100     0.1940     1.9500 ce         1 VD4      -0.189000
     21 C6           0.0560    -0.1250     1.2380 ce         1 VD4      -0.172000
     22 C5          -1.1530    -0.3830     1.7990 c2         1 VD4      -0.097400
     23 C10         -2.3610    -0.7470     0.9380 c6         1 VD4      -0.077200
     24 C1          -3.5790     0.1610     1.2390 c6         1 VD4       0.213000
     25 O1          -4.7000    -0.2690     0.4540 oh         1 VD4      -0.656000
     26 C4          -1.4730    -0.3640     3.2980 c6         1 VD4      -0.077200
     27 C3          -2.7090     0.5140     3.6300 c6         1 VD4       0.213000
     28 O2          -2.3930     1.9020     3.4780 oh         1 VD4      -0.656000
     29 C2          -3.9020     0.1630     2.7420 c2         1 VD4      -0.120400
     30 C28         -5.1160    -0.1050     3.2660 c2         1 VD4      -0.278000
     31 HO3          3.6200     7.9900     3.4080 ho         1 VD4       0.438000
     32 H261         4.8710     9.5530     2.0230 hc         1 VD4       0.041200
     33 H262         6.5090     9.9290     2.5900 hc         1 VD4       0.041200
     34 H263         5.1020    10.5660     3.4620 hc         1 VD4       0.041200
     35 H271         6.2230     7.8530     5.7980 hc         1 VD4       0.041200
     36 H272         7.3850     8.7860     4.8300 hc         1 VD4       0.041200
     37 H273         6.0030     9.5960     5.5940 hc         1 VD4       0.041200
     38 H241         6.9910     7.3960     2.6460 hc         1 VD4       0.038700
     39 H242         5.3520     7.1000     2.0980 hc         1 VD4       0.038700
     40 H231         6.6310     5.9020     4.6170 hc         1 VD4       0.047700
     41 H232         4.9590     5.6290     4.1270 hc         1 VD4       0.047700
     42 H221         7.4570     4.8190     2.5420 hc         1 VD4       0.043200
     43 H222         5.8320     4.7120     1.9390 hc         1 VD4       0.043200
     44 H211         7.0040     3.7740     5.5320 hc         1 VD4       0.037700
     45 H212         7.3590     2.1180     5.0410 hc         1 VD4       0.037700
     46 H213         8.2870     3.4380     4.3570 hc         1 VD4       0.037700
     47 H181         2.9330     3.4290     3.6220 hc         1 VD4       0.035700
     48 H182         3.5070     4.4530     2.3110 hc         1 VD4       0.035700
     49 H183         2.2190     3.2870     2.0160 hc         1 VD4       0.035700
     50 H121         5.4620     1.8570     0.4160 hc         1 VD4       0.042700
     51 H122         5.0150     3.5420     0.4340 hc         1 VD4       0.042700
     52 H111         3.8300     2.2850    -1.4050 hc         1 VD4       0.040700
     53 H112         2.7230     3.0860    -0.3110 hc         1 VD4       0.040700
     54 H91          3.2970     0.0930    -0.5370 hc         1 VD4       0.046700
     55 H92          1.7630     0.9260    -0.6960 hc         1 VD4       0.046700
     56 H161         5.8030     0.2790     4.0090 hc         1 VD4       0.049200
     57 H162         5.1340     1.3780     5.2100 hc         1 VD4       0.049200
     58 H151         3.4820    -0.4220     4.0410 hc         1 VD4       0.045700
     59 H152         2.8730     1.2260     4.2800 hc         1 VD4       0.045700
     60 H14          4.4910     0.2040     1.8570 hc         1 VD4       0.055700
     61 H7           1.2890     0.0310     3.0230 ha         1 VD4       0.169000
     62 H6           0.1290    -0.1770     0.1530 ha         1 VD4       0.169000
     63 H101        -2.1090    -0.6830    -0.1290 hc         1 VD4       0.052450
     64 H102        -2.6300    -1.7950     1.1280 hc         1 VD4       0.052450
     65 H1          -3.3100     1.1900     0.9530 h1         1 VD4       0.046700
     66 HO1         -4.4310    -0.1790    -0.4860 ho         1 VD4       0.443000
     67 H41         -1.6790    -1.3940     3.6210 hc         1 VD4       0.052450
     68 H42         -0.6270    -0.0290     3.9070 hc         1 VD4       0.052450
     69 H3          -2.9780     0.3190     4.6790 h1         1 VD4       0.046700
     70 HO2         -1.5750     2.0590     3.9970 ho         1 VD4       0.443000
     71 H281        -5.2930    -0.0840     4.3410 ha         1 VD4       0.171000
     72 H282        -5.9770    -0.3510     2.6440 ha         1 VD4       0.171000
@<TRIPOS>BOND
     1     1     2 1   
     2     1    31 1   
     3     2     3 1   
     4     2     4 1   
     5     2     5 1   
     6     3    32 1   
     7     3    33 1   
     8     3    34 1   
     9     4    35 1   
    10     4    36 1   
    11     4    37 1   
    12     5     6 1   
    13     5    38 1   
    14     5    39 1   
    15     6     7 1   
    16     6    40 1   
    17     6    41 1   
    18     7     8 1   
    19     7    42 1   
    20     7    43 1   
    21     8     9 1   
    22     8    10 2   
    23     9    44 1   
    24     9    45 1   
    25     9    46 1   
    26    10    11 1   
    27    10    16 1   
    28    11    12 1   
    29    11    13 1   
    30    11    18 1   
    31    12    47 1   
    32    12    48 1   
    33    12    49 1   
    34    13    14 1   
    35    13    50 1   
    36    13    51 1   
    37    14    15 1   
    38    14    52 1   
    39    14    53 1   
    40    15    19 1   
    41    15    54 1   
    42    15    55 1   
    43    16    17 1   
    44    16    56 1   
    45    16    57 1   
    46    17    18 1   
    47    17    58 1   
    48    17    59 1   
    49    18    19 1   
    50    18    60 1   
    51    19    20 2   
    52    20    21 1   
    53    20    61 1   
    54    21    22 2   
    55    21    62 1   
    56    22    23 1   
    57    22    26 1   
    58    23    24 1   
    59    23    63 1   
    60    23    64 1   
    61    24    25 1   
    62    24    29 1   
    63    24    65 1   
    64    25    66 1   
    65    26    27 1   
    66    26    67 1   
    67    26    68 1   
    68    27    28 1   
    69    27    29 1   
    70    27    69 1   
    71    28    70 1   
    72    29    30 2   
    73    30    71 1   
    74    30    72 1   
@<TRIPOS>SUBSTRUCTURE
     1 VD4         1 TEMP              0 ****  ****    0 ROOT
