@<TRIPOS>MOLECULE
VD4
   72    74     1     0     0
SMALL
bcc


@<TRIPOS>ATOM
      1 O3           4.7170     8.5500     4.3860 oh         1 VD4      -0.596800
      2 C25          5.9380     8.5410     3.6560 c3         1 VD4       0.160800
      3 C26          5.9490     9.6890     2.6460 c3         1 VD4      -0.100100
      4 C27          7.0450     8.7500     4.6820 c3         1 VD4      -0.100100
      5 C24          6.1130     7.2130     2.9040 c3         1 VD4      -0.104400
      6 C23          5.9800     5.9480     3.7420 c3         1 VD4      -0.068400
      7 C22          6.1970     4.6950     2.8900 c3         1 VD4      -0.039200
      8 C20          6.0180     3.4170     3.6640 c2         1 VD4      -0.107400
      9 C21          6.9790     3.2620     4.8160 c3         1 VD4      -0.055900
     10 C17          5.0760     2.4970     3.4250 c2         1 VD4      -0.111400
     11 C13          4.0010     2.4780     2.3380 c5         1 VD4       0.003200
     12 C18          2.8780     3.4340     2.7650 c3         1 VD4      -0.078100
     13 C12          4.4160     2.7430     0.8840 c6         1 VD4      -0.060400
     14 C11          3.2800     2.4250    -0.0930 c6         1 VD4      -0.073400
     15 C9           2.6820     1.0250     0.0870 c6         1 VD4      -0.041200
     16 C16          4.8650     1.2890     4.3280 c5         1 VD4      -0.042200
     17 C15          3.5490     0.6520     3.8720 c5         1 VD4      -0.071400
     18 C14          3.5450     0.9940     2.3950 c5         1 VD4      -0.038500
     19 C8           2.3580     0.7360     1.5270 c2         1 VD4      -0.077400
     20 C7           1.1810     0.2990     2.0010 ce         1 VD4      -0.139000
     21 C6          -0.0100     0.0370     1.2120 ce         1 VD4      -0.122000
     22 C5          -1.1810    -0.4430     1.6580 c2         1 VD4      -0.097400
     23 C10         -2.3380    -0.6570     0.7280 c6         1 VD4      -0.077200
     24 C1          -3.5840     0.1220     1.1870 c6         1 VD4       0.189800
     25 O1          -4.7010    -0.1660     0.3860 oh         1 VD4      -0.593800
     26 C4          -1.5000    -0.7860     3.0810 c6         1 VD4      -0.077200
     27 C3          -2.7260     0.0020     3.5630 c6         1 VD4       0.189800
     28 O2          -2.4650     1.3910     3.5940 oh         1 VD4      -0.593800
     29 C2          -3.8790    -0.2220     2.6200 c2         1 VD4      -0.120400
     30 C28         -5.0290    -0.7350     3.0430 c2         1 VD4      -0.178000
     31 HO3          3.9940     8.4230     3.7620 ho         1 VD4       0.399000
     32 H261         5.1290     9.5860     1.9310 hc         1 VD4       0.041200
     33 H262         6.8800     9.7050     2.0770 hc         1 VD4       0.041200
     34 H263         5.8450    10.6530     3.1460 hc         1 VD4       0.041200
     35 H271         7.0430     7.9780     5.4530 hc         1 VD4       0.041200
     36 H272         8.0210     8.7330     4.1950 hc         1 VD4       0.041200
     37 H273         6.9390     9.7170     5.1760 hc         1 VD4       0.041200
     38 H241         7.0930     7.2220     2.4130 hc         1 VD4       0.038700
     39 H242         5.3770     7.1750     2.0910 hc         1 VD4       0.038700
     40 H231         6.6970     5.9630     4.5670 hc         1 VD4       0.047700
     41 H232         4.9860     5.9030     4.1950 hc         1 VD4       0.047700
     42 H221         7.2100     4.7270     2.4700 hc         1 VD4       0.043200
     43 H222         5.5150     4.7400     2.0430 hc         1 VD4       0.043200
     44 H211         6.6380     3.8000     5.7050 hc         1 VD4       0.037700
     45 H212         7.1290     2.2230     5.1080 hc         1 VD4       0.037700
     46 H213         7.9560     3.6750     4.5590 hc         1 VD4       0.037700
     47 H181         2.5040     3.2020     3.7630 hc         1 VD4       0.035700
     48 H182         3.2520     4.4600     2.7910 hc         1 VD4       0.035700
     49 H183         2.0230     3.4090     2.0880 hc         1 VD4       0.035700
     50 H121         5.2910     2.1260     0.6480 hc         1 VD4       0.042700
     51 H122         4.7150     3.7790     0.7200 hc         1 VD4       0.042700
     52 H111         3.6490     2.5260    -1.1160 hc         1 VD4       0.040700
     53 H112         2.4880     3.1700     0.0150 hc         1 VD4       0.040700
     54 H91          3.4250     0.2880    -0.2410 hc         1 VD4       0.046700
     55 H92          1.8210     0.9100    -0.5710 hc         1 VD4       0.046700
     56 H161         5.6810     0.5700     4.2010 hc         1 VD4       0.049200
     57 H162         4.8530     1.5580     5.3860 hc         1 VD4       0.049200
     58 H151         3.5140    -0.4220     4.0570 hc         1 VD4       0.045700
     59 H152         2.6970     1.0960     4.3920 hc         1 VD4       0.045700
     60 H14          4.3770     0.4240     1.9490 hc         1 VD4       0.055700
     61 H7           1.1120     0.1170     3.0680 ha         1 VD4       0.119000
     62 H6           0.0530     0.2450     0.1480 ha         1 VD4       0.119000
     63 H101        -2.0760    -0.3600    -0.2910 hc         1 VD4       0.052450
     64 H102        -2.6030    -1.7210     0.7020 hc         1 VD4       0.052450
     65 H1          -3.3400     1.1930     1.1340 h1         1 VD4       0.046700
     66 HO1         -4.5180     0.1500    -0.5040 ho         1 VD4       0.404000
     67 H41         -1.7360    -1.8530     3.1600 hc         1 VD4       0.052450
     68 H42         -0.6630    -0.6100     3.7600 hc         1 VD4       0.052450
     69 H3          -3.0040    -0.3660     4.5590 h1         1 VD4       0.046700
     70 HO2         -1.6270     1.5310     4.0470 ho         1 VD4       0.404000
     71 H281        -5.1730    -0.9760     4.0890 ha         1 VD4       0.121000
     72 H282        -5.8610    -0.9320     2.3830 ha         1 VD4       0.121000
@<TRIPOS>BOND
     1     1     2 1   
     2     1    31 1   
     3     2     3 1   
     4     2     4 1   
     5     2     5 1   
     6     3    32 1   
     7     3    33 1   
     8     3    34 1   
     9     4    35 1   
    10     4    36 1   
    11     4    37 1   
    12     5     6 1   
    13     5    38 1   
    14     5    39 1   
    15     6     7 1   
    16     6    40 1   
    17     6    41 1   
    18     7     8 1   
    19     7    42 1   
    20     7    43 1   
    21     8     9 1   
    22     8    10 2   
    23     9    44 1   
    24     9    45 1   
    25     9    46 1   
    26    10    11 1   
    27    10    16 1   
    28    11    12 1   
    29    11    13 1   
    30    11    18 1   
    31    12    47 1   
    32    12    48 1   
    33    12    49 1   
    34    13    14 1   
    35    13    50 1   
    36    13    51 1   
    37    14    15 1   
    38    14    52 1   
    39    14    53 1   
    40    15    19 1   
    41    15    54 1   
    42    15    55 1   
    43    16    17 1   
    44    16    56 1   
    45    16    57 1   
    46    17    18 1   
    47    17    58 1   
    48    17    59 1   
    49    18    19 1   
    50    18    60 1   
    51    19    20 2   
    52    20    21 1   
    53    20    61 1   
    54    21    22 2   
    55    21    62 1   
    56    22    23 1   
    57    22    26 1   
    58    23    24 1   
    59    23    63 1   
    60    23    64 1   
    61    24    25 1   
    62    24    29 1   
    63    24    65 1   
    64    25    66 1   
    65    26    27 1   
    66    26    67 1   
    67    26    68 1   
    68    27    28 1   
    69    27    29 1   
    70    27    69 1   
    71    28    70 1   
    72    29    30 2   
    73    30    71 1   
    74    30    72 1   
@<TRIPOS>SUBSTRUCTURE
     1 VD4         1 TEMP              0 ****  ****    0 ROOT
