@<TRIPOS>MOLECULE
VD5
   72    74     1     0     0
SMALL
bcc


@<TRIPOS>ATOM
      1 O2           4.8060     0.8830     2.1710 oh         1 VD5      -0.593800
      2 C3           3.8480     1.8040     2.6540 c6         1 VD5       0.189300
      3 C2           4.5360     3.1350     2.8180 c2         1 VD5      -0.120400
      4 C28          4.6490     3.7120     4.0090 c2         1 VD5      -0.178000
      5 C1           5.0040     3.7550     1.5300 c6         1 VD5       0.189300
      6 O1           5.5800     5.0100     1.7860 oh         1 VD5      -0.593800
      7 C10          3.8130     3.8600     0.5590 c6         1 VD5      -0.077200
      8 C4           2.6700     1.9460     1.6810 c6         1 VD5      -0.077200
      9 C5           3.1420     2.5300     0.3850 c2         1 VD5      -0.099400
     10 C6           3.0620     1.9350    -0.8150 ce         1 VD5      -0.121000
     11 C7           2.4830     0.6370    -1.1070 ce         1 VD5      -0.148000
     12 C8           2.4870     0.0580    -2.3170 c2         1 VD5      -0.075400
     13 C9           3.0990     0.6860    -3.5520 c6         1 VD5      -0.041200
     14 C11          2.7320    -0.0780    -4.8220 c6         1 VD5      -0.074400
     15 C12          3.1010    -1.5680    -4.7730 c6         1 VD5      -0.060400
     16 C14          1.9210    -1.3000    -2.5740 c5         1 VD5      -0.033500
     17 C13          2.9230    -2.1790    -3.3640 c5         1 VD5       0.000200
     18 C18          4.2750    -2.2480    -2.6360 c3         1 VD5      -0.077100
     19 C15          1.4590    -2.1820    -1.4290 c5         1 VD5      -0.072400
     20 C16          1.2710    -3.5360    -2.1210 c5         1 VD5      -0.042200
     21 C17          2.2640    -3.5510    -3.2740 c2         1 VD5      -0.110400
     22 C20          2.5050    -4.6270    -4.0280 c2         1 VD5      -0.110400
     23 C21          3.5260    -4.6890    -5.1290 c3         1 VD5      -0.051900
     24 C22          1.7640    -5.9200    -3.7980 c3         1 VD5      -0.041200
     25 C23          2.5290    -6.8940    -2.8980 c3         1 VD5      -0.069400
     26 C24          1.7440    -8.1790    -2.6650 c3         1 VD5      -0.103400
     27 C25          2.4580    -9.2610    -1.8420 c3         1 VD5       0.160800
     28 C27          1.5380   -10.4750    -1.7110 c3         1 VD5      -0.100100
     29 C26          2.8360    -8.7520    -0.4560 c3         1 VD5      -0.100100
     30 O3           3.6780    -9.6400    -2.4690 oh         1 VD5      -0.596800
     31 HO2          4.3450     0.0880     1.8860 ho         1 VD5       0.404000
     32 H3           3.4580     1.4840     3.6300 h1         1 VD5       0.046700
     33 H281         4.2740     3.2200     4.8980 ha         1 VD5       0.121000
     34 H282         5.1090     4.6790     4.1510 ha         1 VD5       0.121000
     35 H1           5.7410     3.0790     1.0740 h1         1 VD5       0.046700
     36 HO1          5.9430     5.3450     0.9610 ho         1 VD5       0.404000
     37 H101         4.1580     4.2510    -0.4030 hc         1 VD5       0.052200
     38 H102         3.1050     4.5850     0.9780 hc         1 VD5       0.052200
     39 H41          1.9330     2.6140     2.1400 hc         1 VD5       0.052200
     40 H42          2.1740     0.9800     1.5610 hc         1 VD5       0.052200
     41 H6           3.4850     2.4760    -1.6570 ha         1 VD5       0.118000
     42 H7           2.0260     0.0950    -0.2870 ha         1 VD5       0.120000
     43 H91          2.7840     1.7280    -3.6540 hc         1 VD5       0.049200
     44 H92          4.1890     0.7180    -3.4460 hc         1 VD5       0.049200
     45 H111         1.6590     0.0290    -4.9980 hc         1 VD5       0.039700
     46 H112         3.2210     0.3890    -5.6790 hc         1 VD5       0.039700
     47 H121         2.4860    -2.1030    -5.4990 hc         1 VD5       0.043200
     48 H122         4.1370    -1.6910    -5.1010 hc         1 VD5       0.043200
     49 H14          1.0460    -1.1750    -3.2330 hc         1 VD5       0.060700
     50 H181         4.7740    -1.2780    -2.5900 hc         1 VD5       0.035700
     51 H182         4.1720    -2.6130    -1.6130 hc         1 VD5       0.035700
     52 H183         4.9450    -2.9340    -3.1580 hc         1 VD5       0.035700
     53 H151         0.5420    -1.8230    -0.9590 hc         1 VD5       0.045200
     54 H152         2.2180    -2.2450    -0.6460 hc         1 VD5       0.045200
     55 H161         0.2460    -3.6180    -2.5000 hc         1 VD5       0.049200
     56 H162         1.4100    -4.3740    -1.4350 hc         1 VD5       0.049200
     57 H211         3.0460    -4.7250    -6.1120 hc         1 VD5       0.039033
     58 H212         4.2180    -3.8520    -5.1290 hc         1 VD5       0.039033
     59 H213         4.1200    -5.6020    -5.0460 hc         1 VD5       0.039033
     60 H221         0.7790    -5.7320    -3.3630 hc         1 VD5       0.040200
     61 H222         1.5780    -6.4060    -4.7620 hc         1 VD5       0.040200
     62 H231         2.7420    -6.4020    -1.9460 hc         1 VD5       0.048700
     63 H232         3.4970    -7.1280    -3.3490 hc         1 VD5       0.048700
     64 H241         0.7960    -7.9380    -2.1730 hc         1 VD5       0.038200
     65 H242         1.4710    -8.6120    -3.6360 hc         1 VD5       0.038200
     66 H271         1.2590   -10.8650    -2.6930 hc         1 VD5       0.041200
     67 H272         0.6160   -10.2150    -1.1890 hc         1 VD5       0.041200
     68 H273         2.0260   -11.2770    -1.1530 hc         1 VD5       0.041200
     69 H261         3.5580    -7.9360    -0.5040 hc         1 VD5       0.041200
     70 H262         1.9540    -8.3850     0.0690 hc         1 VD5       0.041200
     71 H263         3.2730    -9.5510     0.1450 hc         1 VD5       0.041200
     72 HO3          3.4730    -9.9480    -3.3580 ho         1 VD5       0.399000
@<TRIPOS>BOND
     1     1     2 1   
     2     1    31 1   
     3     2     3 1   
     4     2     8 1   
     5     2    32 1   
     6     3     4 2   
     7     3     5 1   
     8     4    33 1   
     9     4    34 1   
    10     5     6 1   
    11     5     7 1   
    12     5    35 1   
    13     6    36 1   
    14     7     9 1   
    15     7    37 1   
    16     7    38 1   
    17     8     9 1   
    18     8    39 1   
    19     8    40 1   
    20     9    10 2   
    21    10    11 1   
    22    10    41 1   
    23    11    12 2   
    24    11    42 1   
    25    12    13 1   
    26    12    16 1   
    27    13    14 1   
    28    13    43 1   
    29    13    44 1   
    30    14    15 1   
    31    14    45 1   
    32    14    46 1   
    33    15    17 1   
    34    15    47 1   
    35    15    48 1   
    36    16    17 1   
    37    16    19 1   
    38    16    49 1   
    39    17    18 1   
    40    17    21 1   
    41    18    50 1   
    42    18    51 1   
    43    18    52 1   
    44    19    20 1   
    45    19    53 1   
    46    19    54 1   
    47    20    21 1   
    48    20    55 1   
    49    20    56 1   
    50    21    22 2   
    51    22    23 1   
    52    22    24 1   
    53    23    57 1   
    54    23    58 1   
    55    23    59 1   
    56    24    25 1   
    57    24    60 1   
    58    24    61 1   
    59    25    26 1   
    60    25    62 1   
    61    25    63 1   
    62    26    27 1   
    63    26    64 1   
    64    26    65 1   
    65    27    28 1   
    66    27    29 1   
    67    27    30 1   
    68    28    66 1   
    69    28    67 1   
    70    28    68 1   
    71    29    69 1   
    72    29    70 1   
    73    29    71 1   
    74    30    72 1   
@<TRIPOS>SUBSTRUCTURE
     1 VD5         1 TEMP              0 ****  ****    0 ROOT
