@<TRIPOS>MOLECULE
VD5
   72    74     1     0     0
SMALL
No Charge or Current Charge


@<TRIPOS>ATOM
      1 O2           4.6820     1.0220     2.6640 oh         1 VD5      -0.656000
      2 C3           3.6900     2.0350     2.8690 c6         1 VD5       0.212500
      3 C2           4.3730     3.3950     3.0180 c2         1 VD5      -0.120400
      4 C28          4.4330     4.0250     4.2090 c2         1 VD5      -0.278000
      5 C1           4.9730     3.9390     1.7110 c6         1 VD5       0.212500
      6 O1           5.5020     5.2620     1.8780 oh         1 VD5      -0.656000
      7 C10          3.9180     3.9460     0.5770 c6         1 VD5      -0.077200
      8 C4           2.6670     2.0370     1.7030 c6         1 VD5      -0.077200
      9 C5           3.2690     2.5760     0.4010 c2         1 VD5      -0.099400
     10 C6           3.2460     1.9590    -0.8090 ce         1 VD5      -0.171000
     11 C7           2.6500     0.6460    -1.1280 ce         1 VD5      -0.198000
     12 C8           2.6340     0.0920    -2.3690 c2         1 VD5      -0.075400
     13 C9           3.1910     0.7510    -3.6360 c6         1 VD5      -0.041200
     14 C11          2.7300     0.0100    -4.9250 c6         1 VD5      -0.074400
     15 C12          2.9570    -1.5380    -4.8950 c6         1 VD5      -0.060400
     16 C14          1.9840    -1.2920    -2.5550 c5         1 VD5      -0.033500
     17 C13          2.9390    -2.1600    -3.4520 c5         1 VD5       0.000200
     18 C18          4.4120    -2.2690    -2.9250 c3         1 VD5      -0.077100
     19 C15          1.7740    -2.1950    -1.3080 c5         1 VD5      -0.072400
     20 C16          1.4070    -3.5220    -2.0300 c5         1 VD5      -0.042200
     21 C17          2.2690    -3.5400    -3.3220 c2         1 VD5      -0.110400
     22 C20          2.4460    -4.6480    -4.0840 c2         1 VD5      -0.110400
     23 C21          3.3860    -4.7890    -5.2750 c3         1 VD5      -0.051900
     24 C22          1.7200    -5.9860    -3.8000 c3         1 VD5      -0.041200
     25 C23          2.5060    -7.0500    -2.9550 c3         1 VD5      -0.069400
     26 C24          1.6720    -8.3260    -2.6630 c3         1 VD5      -0.103400
     27 C25          2.3990    -9.4570    -1.8750 c3         1 VD5       0.184000
     28 C27          1.4610   -10.6740    -1.7070 c3         1 VD5      -0.100100
     29 C26          2.9030    -8.9810    -0.4910 c3         1 VD5      -0.100100
     30 O3           3.5320    -9.8900    -2.6300 oh         1 VD5      -0.659000
     31 HO2          4.1950     0.1860     2.5030 ho         1 VD5       0.443000
     32 H3           3.1350     1.8130     3.7930 h1         1 VD5       0.046700
     33 H281         3.9960     3.5920     5.1090 ha         1 VD5       0.171000
     34 H282         4.9220     4.9920     4.3330 ha         1 VD5       0.171000
     35 H1           5.7860     3.2600     1.4080 h1         1 VD5       0.046700
     36 HO1          5.9170     5.5050     1.0220 ho         1 VD5       0.443000
     37 H101         4.3860     4.2750    -0.3610 hc         1 VD5       0.052200
     38 H102         3.1370     4.6840     0.8060 hc         1 VD5       0.052200
     39 H41          1.8220     2.6810     1.9830 hc         1 VD5       0.052200
     40 H42          2.2410     1.0350     1.5940 hc         1 VD5       0.052200
     41 H6           3.7180     2.4730    -1.6470 ha         1 VD5       0.168000
     42 H7           2.2020     0.1120    -0.2960 ha         1 VD5       0.170000
     43 H91          2.8590     1.7960    -3.6920 hc         1 VD5       0.049200
     44 H92          4.2880     0.7780    -3.5930 hc         1 VD5       0.049200
     45 H111         1.6570     0.2030    -5.0660 hc         1 VD5       0.039700
     46 H112         3.2250     0.4430    -5.8050 hc         1 VD5       0.039700
     47 H121         2.1830    -2.0130    -5.5130 hc         1 VD5       0.043200
     48 H122         3.9110    -1.7520    -5.3930 hc         1 VD5       0.043200
     49 H14          1.0150    -1.1540    -3.0540 hc         1 VD5       0.060700
     50 H181         4.9140    -1.2990    -2.8620 hc         1 VD5       0.035700
     51 H182         4.4650    -2.7270    -1.9320 hc         1 VD5       0.035700
     52 H183         5.0240    -2.8980    -3.5820 hc         1 VD5       0.035700
     53 H151         0.9620    -1.8460    -0.6610 hc         1 VD5       0.045200
     54 H152         2.6720    -2.2920    -0.6880 hc         1 VD5       0.045200
     55 H161         0.3140    -3.5560    -2.2130 hc         1 VD5       0.049200
     56 H162         1.6310    -4.3840    -1.3920 hc         1 VD5       0.049200
     57 H211         2.8210    -4.8990    -6.2080 hc         1 VD5       0.039033
     58 H212         4.0640    -3.9430    -5.4000 hc         1 VD5       0.039033
     59 H213         4.0240    -5.6740    -5.1710 hc         1 VD5       0.039033
     60 H221         0.7730    -5.7900    -3.2830 hc         1 VD5       0.040200
     61 H222         1.4200    -6.4480    -4.7490 hc         1 VD5       0.040200
     62 H231         2.8100    -6.5820    -2.0120 hc         1 VD5       0.048700
     63 H232         3.4250    -7.3210    -3.4870 hc         1 VD5       0.048700
     64 H241         0.7740    -8.0320    -2.1050 hc         1 VD5       0.038200
     65 H242         1.3160    -8.7320    -3.6190 hc         1 VD5       0.038200
     66 H271         1.1150   -11.0450    -2.6790 hc         1 VD5       0.041200
     67 H272         0.5780   -10.4040    -1.1150 hc         1 VD5       0.041200
     68 H273         1.9720   -11.4970    -1.1930 hc         1 VD5       0.041200
     69 H261         3.6720    -8.2060    -0.5890 hc         1 VD5       0.041200
     70 H262         2.0760    -8.5710     0.1020 hc         1 VD5       0.041200
     71 H263         3.3430    -9.8130     0.0710 hc         1 VD5       0.041200
     72 HO3          3.2040   -10.1250    -3.5230 ho         1 VD5       0.438000
@<TRIPOS>BOND
     1     1     2 1   
     2     1    31 1   
     3     2     3 1   
     4     2     8 1   
     5     2    32 1   
     6     3     4 2   
     7     3     5 1   
     8     4    33 1   
     9     4    34 1   
    10     5     6 1   
    11     5     7 1   
    12     5    35 1   
    13     6    36 1   
    14     7     9 1   
    15     7    37 1   
    16     7    38 1   
    17     8     9 1   
    18     8    39 1   
    19     8    40 1   
    20     9    10 2   
    21    10    11 1   
    22    10    41 1   
    23    11    12 2   
    24    11    42 1   
    25    12    13 1   
    26    12    16 1   
    27    13    14 1   
    28    13    43 1   
    29    13    44 1   
    30    14    15 1   
    31    14    45 1   
    32    14    46 1   
    33    15    17 1   
    34    15    47 1   
    35    15    48 1   
    36    16    17 1   
    37    16    19 1   
    38    16    49 1   
    39    17    18 1   
    40    17    21 1   
    41    18    50 1   
    42    18    51 1   
    43    18    52 1   
    44    19    20 1   
    45    19    53 1   
    46    19    54 1   
    47    20    21 1   
    48    20    55 1   
    49    20    56 1   
    50    21    22 2   
    51    22    23 1   
    52    22    24 1   
    53    23    57 1   
    54    23    58 1   
    55    23    59 1   
    56    24    25 1   
    57    24    60 1   
    58    24    61 1   
    59    25    26 1   
    60    25    62 1   
    61    25    63 1   
    62    26    27 1   
    63    26    64 1   
    64    26    65 1   
    65    27    28 1   
    66    27    29 1   
    67    27    30 1   
    68    28    66 1   
    69    28    67 1   
    70    28    68 1   
    71    29    69 1   
    72    29    70 1   
    73    29    71 1   
    74    30    72 1   
@<TRIPOS>SUBSTRUCTURE
     1 VD5         1 TEMP              0 ****  ****    0 ROOT
