@<TRIPOS>MOLECULE
VD6
   32    33     1     0     0
SMALL
No Charge or Current Charge


@<TRIPOS>ATOM
      1 C7          49.8730     1.3460    26.8700 c6         1 VD6       0.189800
      2 C8          50.1090     1.4240    28.4080 c6         1 VD6      -0.066400
      3 C9          49.8980     2.8470    28.9880 c6         1 VD6      -0.064400
      4 O1          46.7770     4.3460    25.5910 o          1 VD6      -0.734500
      5 C1          52.2320     0.2770    22.9340 ca         1 VD6      -0.125500
      6 C5          53.5050     2.1830    23.7500 ca         1 VD6      -0.125500
      7 C4          52.3310     2.7340    24.2930 ca         1 VD6      -0.103000
      8 C3          51.1000     2.0610    24.1610 ca         1 VD6      -0.059300
      9 C2          51.0580     0.8280    23.4770 ca         1 VD6      -0.103000
     10 C12         47.2220     3.3910    26.2170 c          1 VD6       0.685000
     11 O           46.7910     2.2600    26.0250 o          1 VD6      -0.734500
     12 C11         48.6890     3.5520    26.8090 c6         1 VD6       0.066500
     13 C10         48.6400     3.5000    28.3720 c6         1 VD6      -0.064400
     14 N           49.8120     2.6950    26.2370 n3         1 VD6      -0.758600
     15 C           53.4560     0.9540    23.0700 ca         1 VD6      -0.134000
     16 H1          48.9370     0.8000    26.6810 h1         1 VD6       0.032700
     17 H2          50.6790     0.7420    26.4300 h1         1 VD6       0.032700
     18 H3          49.4350     0.7160    28.9080 hc         1 VD6       0.017200
     19 H4          51.1280     1.0900    28.6410 hc         1 VD6       0.017200
     20 H5          50.7780     3.4700    28.7770 hc         1 VD6       0.019200
     21 H6          49.8060     2.7980    30.0820 hc         1 VD6       0.019200
     22 H12         52.3750     3.6830    24.8220 ha         1 VD6       0.120500
     23 H13         50.1150     0.2960    23.3690 ha         1 VD6       0.120500
     24 H14         48.9570     4.5910    26.5640 h1         1 VD6       0.042700
     25 H15         48.5030     4.5130    28.7740 hc         1 VD6       0.040700
     26 H16         47.7600     2.9270    28.6920 hc         1 VD6       0.040700
     27 H18         54.3640     0.5280    22.6500 ha         1 VD6       0.093000
     28 C6          49.8260     2.6660    24.7500 c3         1 VD6       0.230100
     29 H8          52.1930    -0.6740    22.4090 ha         1 VD6       0.096000
     30 H10         49.7340     3.6890    24.3590 h1         1 VD6       0.055200
     31 H11         48.9590     2.1070    24.3710 h1         1 VD6       0.055200
     32 H9          54.4520     2.7070    23.8570 ha         1 VD6       0.096000
@<TRIPOS>BOND
     1     1     2 1   
     2     1    14 1   
     3     1    16 1   
     4     1    17 1   
     5     2     3 1   
     6     2    18 1   
     7     2    19 1   
     8     3    13 1   
     9     3    20 1   
    10     3    21 1   
    11     4    10 1   
    12     5     9 ar  
    13     5    15 ar  
    14     5    29 1   
    15     6     7 ar  
    16     6    15 ar  
    17     6    32 1   
    18     7     8 ar  
    19     7    22 1   
    20     8     9 ar  
    21     8    28 1   
    22     9    23 1   
    23    10    11 1   
    24    10    12 1   
    25    12    13 1   
    26    12    14 1   
    27    12    24 1   
    28    13    25 1   
    29    13    26 1   
    30    14    28 1   
    31    15    27 1   
    32    28    30 1   
    33    28    31 1   
@<TRIPOS>SUBSTRUCTURE
     1 VD6         1 TEMP              0 ****  ****    0 ROOT
