@<TRIPOS>MOLECULE
VD6
   32    33     1     0     0
SMALL
abcg2


@<TRIPOS>ATOM
      1 C7          49.7840     1.3380    26.9390 c6         1 VD6       0.189800
      2 C8          50.3370     1.5820    28.3540 c6         1 VD6      -0.066400
      3 C9          49.9750     2.9920    28.8560 c6         1 VD6      -0.064400
      4 O1          46.7430     4.5600    25.8660 o          1 VD6      -0.734500
      5 C1          52.2340     0.4470    22.7370 ca         1 VD6      -0.125500
      6 C5          53.4400     2.0220    24.0960 ca         1 VD6      -0.125500
      7 C4          52.2400     2.4870    24.6210 ca         1 VD6      -0.103000
      8 C3          51.0220     1.9400    24.2130 ca         1 VD6      -0.059300
      9 C2          51.0340     0.9150    23.2690 ca         1 VD6      -0.103000
     10 C12         47.3080     3.4640    26.1250 c          1 VD6       0.685000
     11 O           46.8060     2.3210    25.9720 o          1 VD6      -0.734500
     12 C11         48.7380     3.5570    26.7260 c6         1 VD6       0.066500
     13 C10         48.6410     3.4300    28.2590 c6         1 VD6      -0.064400
     14 N           49.7210     2.5980    26.2080 n3         1 VD6      -0.758600
     15 C           53.4410     0.9990    23.1500 ca         1 VD6      -0.134000
     16 H1          48.8000     0.8520    26.9830 h1         1 VD6       0.032700
     17 H2          50.4440     0.6620    26.3940 h1         1 VD6       0.032700
     18 H3          49.9260     0.8280    29.0310 hc         1 VD6       0.017200
     19 H4          51.4220     1.4580    28.3570 hc         1 VD6       0.017200
     20 H5          50.7500     3.7040    28.5620 hc         1 VD6       0.019200
     21 H6          49.9290     3.0050    29.9480 hc         1 VD6       0.019200
     22 H12         52.2390     3.2750    25.3640 ha         1 VD6       0.120500
     23 H13         50.0960     0.4750    22.9530 ha         1 VD6       0.120500
     24 H14         49.1130     4.5560    26.4810 h1         1 VD6       0.042700
     25 H15         48.3130     4.3860    28.6730 hc         1 VD6       0.040700
     26 H16         47.8770     2.6910    28.5160 hc         1 VD6       0.040700
     27 H18         54.3760     0.6350    22.7420 ha         1 VD6       0.093000
     28 C6          49.7150     2.4670    24.7630 c3         1 VD6       0.230100
     29 H8          52.2230    -0.3540    22.0080 ha         1 VD6       0.096000
     30 H10         49.5380     3.4650    24.3490 h1         1 VD6       0.055200
     31 H11         48.8940     1.8320    24.4000 h1         1 VD6       0.055200
     32 H9          54.3760     2.4580    24.4230 ha         1 VD6       0.096000
@<TRIPOS>BOND
     1     1     2 1   
     2     1    14 1   
     3     1    16 1   
     4     1    17 1   
     5     2     3 1   
     6     2    18 1   
     7     2    19 1   
     8     3    13 1   
     9     3    20 1   
    10     3    21 1   
    11     4    10 1   
    12     5     9 ar  
    13     5    15 ar  
    14     5    29 1   
    15     6     7 ar  
    16     6    15 ar  
    17     6    32 1   
    18     7     8 ar  
    19     7    22 1   
    20     8     9 ar  
    21     8    28 1   
    22     9    23 1   
    23    10    11 1   
    24    10    12 1   
    25    12    13 1   
    26    12    14 1   
    27    12    24 1   
    28    13    25 1   
    29    13    26 1   
    30    14    28 1   
    31    15    27 1   
    32    28    30 1   
    33    28    31 1   
@<TRIPOS>SUBSTRUCTURE
     1 VD6         1 TEMP              0 ****  ****    0 ROOT
