@<TRIPOS>MOLECULE
VD8
   41    41     1     0     0
SMALL
No Charge or Current Charge


@<TRIPOS>ATOM
      1 O10         23.1050     1.5230    11.4500 o          1 VD8      -0.531500
      2 S7          23.6810     2.5660    10.6050 sy         1 VD8       1.145600
      3 O9          24.5190     2.2770     9.4410 o          1 VD8      -0.531500
      4 N8          22.3770     3.3510    10.0110 n8         1 VD8      -1.008100
      5 C6          24.4260     3.8440    11.6230 ca         1 VD8      -0.310500
      6 C2          25.3290     4.7560    11.0480 ca         1 VD8      -0.022500
      7 C5          24.1060     3.9380    12.9910 ca         1 VD8      -0.022500
      8 C4          24.6860     4.9430    13.8010 ca         1 VD8      -0.078300
      9 C11         24.3660     5.0870    15.3150 c3         1 VD8      -0.001200
     10 C14         23.7540     6.4890    15.5810 c3         1 VD8      -0.084933
     11 C13         23.3550     4.0230    15.8320 c3         1 VD8      -0.084933
     12 C12         25.6760     4.9320    16.1340 c3         1 VD8      -0.084933
     13 C3          25.5920     5.8470    13.1970 ca         1 VD8      -0.057000
     14 C1          25.9290     5.7730    11.8220 ca         1 VD8      -0.078300
     15 C15         26.9220     6.7580    11.1460 c3         1 VD8      -0.001200
     16 C18         28.1150     5.9590    10.5550 c3         1 VD8      -0.084933
     17 C17         27.5000     7.8180    12.1260 c3         1 VD8      -0.084933
     18 C16         26.1930     7.5160    10.0030 c3         1 VD8      -0.084933
     19 H1          21.6310     2.7260    10.3060 hn         1 VD8       0.478500
     20 H2          22.3010     4.1390    10.6500 hn         1 VD8       0.478500
     21 H3          25.5640     4.6720     9.9890 ha         1 VD8       0.129500
     22 H4          23.4050     3.2200    13.4090 ha         1 VD8       0.129500
     23 H5          23.4810     6.6050    16.6370 hc         1 VD8       0.037589
     24 H6          24.4550     7.2940    15.3330 hc         1 VD8       0.037589
     25 H7          22.8480     6.6350    14.9800 hc         1 VD8       0.037589
     26 H8          23.1570     4.1600    16.9030 hc         1 VD8       0.037589
     27 H9          22.3940     4.1020    15.3090 hc         1 VD8       0.037589
     28 H10         23.7460     3.0070    15.6980 hc         1 VD8       0.037589
     29 H11         25.4750     4.9890    17.2110 hc         1 VD8       0.037589
     30 H12         26.1470     3.9620    15.9300 hc         1 VD8       0.037589
     31 H13         26.4020     5.7170    15.8940 hc         1 VD8       0.037589
     32 H14         26.0340     6.6150    13.8200 ha         1 VD8       0.117000
     33 H15         28.6200     5.3830    11.3400 hc         1 VD8       0.037589
     34 H16         27.7900     5.2570     9.7790 hc         1 VD8       0.037589
     35 H17         28.8530     6.6320    10.1010 hc         1 VD8       0.037589
     36 H18         28.0530     7.3420    12.9440 hc         1 VD8       0.037589
     37 H19         28.1950     8.4920    11.6090 hc         1 VD8       0.037589
     38 H20         26.7030     8.4370    12.5560 hc         1 VD8       0.037589
     39 H21         25.3220     8.0570    10.3930 hc         1 VD8       0.037589
     40 H22         26.8600     8.2470     9.5290 hc         1 VD8       0.037589
     41 H23         25.8440     6.8340     9.2200 hc         1 VD8       0.037589
@<TRIPOS>BOND
     1     1     2 2   
     2     2     3 2   
     3     2     4 1   
     4     2     5 1   
     5     4    19 1   
     6     4    20 1   
     7     5     6 ar  
     8     5     7 ar  
     9     6    14 ar  
    10     6    21 1   
    11     7     8 ar  
    12     7    22 1   
    13     8     9 1   
    14     8    13 ar  
    15     9    10 1   
    16     9    11 1   
    17     9    12 1   
    18    10    23 1   
    19    10    24 1   
    20    10    25 1   
    21    11    26 1   
    22    11    27 1   
    23    11    28 1   
    24    12    29 1   
    25    12    30 1   
    26    12    31 1   
    27    13    14 ar  
    28    13    32 1   
    29    14    15 1   
    30    15    16 1   
    31    15    17 1   
    32    15    18 1   
    33    16    33 1   
    34    16    34 1   
    35    16    35 1   
    36    17    36 1   
    37    17    37 1   
    38    17    38 1   
    39    18    39 1   
    40    18    40 1   
    41    18    41 1   
@<TRIPOS>SUBSTRUCTURE
     1 VD8         1 TEMP              0 ****  ****    0 ROOT
