@<TRIPOS>MOLECULE
VD8
   41    41     1     0     0
SMALL
bcc


@<TRIPOS>ATOM
      1 O10         23.9960     1.3740    11.2810 o          1 VD8      -0.602300
      2 S7          23.7630     2.6350    10.5970 sy         1 VD8       1.287200
      3 O9          24.2250     2.8130     9.2310 o          1 VD8      -0.602300
      4 N8          22.1360     2.8490    10.5750 n8         1 VD8      -0.897700
      5 C6          24.4660     3.9270    11.5920 ca         1 VD8      -0.310500
      6 C2          25.3750     4.7990    11.0320 ca         1 VD8      -0.040500
      7 C5          24.1070     3.9950    12.9350 ca         1 VD8      -0.040500
      8 C4          24.6690     4.9690    13.7410 ca         1 VD8      -0.078300
      9 C11         24.3290     5.1070    15.2210 c3         1 VD8      -0.001200
     10 C14         23.8050     6.5230    15.4950 c3         1 VD8      -0.084933
     11 C13         23.2650     4.1040    15.6650 c3         1 VD8      -0.084933
     12 C12         25.5980     4.8640    16.0500 c3         1 VD8      -0.084933
     13 C3          25.5950     5.8460    13.1620 ca         1 VD8      -0.075000
     14 C1          25.9630     5.7890    11.8260 ca         1 VD8      -0.078300
     15 C15         26.9540     6.7610    11.1940 c3         1 VD8      -0.001200
     16 C18         28.0990     5.9750    10.5420 c3         1 VD8      -0.084933
     17 C17         27.5590     7.7250    12.2150 c3         1 VD8      -0.084933
     18 C16         26.2210     7.5830    10.1260 c3         1 VD8      -0.084933
     19 H1          21.6690     2.6540    11.4530 hn         1 VD8       0.423300
     20 H2          21.8370     3.7320    10.1780 hn         1 VD8       0.423300
     21 H3          25.6240     4.7180     9.9820 ha         1 VD8       0.147500
     22 H4          23.3970     3.2880    13.3440 ha         1 VD8       0.147500
     23 H5          23.5410     6.6260    16.5490 hc         1 VD8       0.037589
     24 H6          24.5490     7.2880    15.2700 hc         1 VD8       0.037589
     25 H7          22.9130     6.7400    14.9030 hc         1 VD8       0.037589
     26 H8          23.0460     4.2500    16.7240 hc         1 VD8       0.037589
     27 H9          22.3280     4.2290    15.1180 hc         1 VD8       0.037589
     28 H10         23.5960     3.0720    15.5420 hc         1 VD8       0.037589
     29 H11         25.3750     4.9560    17.1150 hc         1 VD8       0.037589
     30 H12         25.9970     3.8640    15.8740 hc         1 VD8       0.037589
     31 H13         26.3850     5.5830    15.8190 hc         1 VD8       0.037589
     32 H14         26.0420     6.6030    13.7930 ha         1 VD8       0.135000
     33 H15         28.6510     5.3940    11.2830 hc         1 VD8       0.037589
     34 H16         27.7460     5.2860     9.7740 hc         1 VD8       0.037589
     35 H17         28.8010     6.6610    10.0650 hc         1 VD8       0.037589
     36 H18         28.1070     7.2000    13.0010 hc         1 VD8       0.037589
     37 H19         28.2650     8.3890    11.7140 hc         1 VD8       0.037589
     38 H20         26.8040     8.3550    12.6880 hc         1 VD8       0.037589
     39 H21         25.4120     8.1680    10.5680 hc         1 VD8       0.037589
     40 H22         26.9110     8.2770     9.6410 hc         1 VD8       0.037589
     41 H23         25.7910     6.9520     9.3470 hc         1 VD8       0.037589
@<TRIPOS>BOND
     1     1     2 2   
     2     2     3 2   
     3     2     4 1   
     4     2     5 1   
     5     4    19 1   
     6     4    20 1   
     7     5     6 ar  
     8     5     7 ar  
     9     6    14 ar  
    10     6    21 1   
    11     7     8 ar  
    12     7    22 1   
    13     8     9 1   
    14     8    13 ar  
    15     9    10 1   
    16     9    11 1   
    17     9    12 1   
    18    10    23 1   
    19    10    24 1   
    20    10    25 1   
    21    11    26 1   
    22    11    27 1   
    23    11    28 1   
    24    12    29 1   
    25    12    30 1   
    26    12    31 1   
    27    13    14 ar  
    28    13    32 1   
    29    14    15 1   
    30    15    16 1   
    31    15    17 1   
    32    15    18 1   
    33    16    33 1   
    34    16    34 1   
    35    16    35 1   
    36    17    36 1   
    37    17    37 1   
    38    17    38 1   
    39    18    39 1   
    40    18    40 1   
    41    18    41 1   
@<TRIPOS>SUBSTRUCTURE
     1 VD8         1 TEMP              0 ****  ****    0 ROOT
