@<TRIPOS>MOLECULE
VD9
   27    27     1     0     0
SMALL
No Charge or Current Charge


@<TRIPOS>ATOM
      1 O4          -3.7150    -1.5620    -0.8020 o          1 VD9      -0.531000
      2 S2          -3.4690    -0.2840    -0.1340 sy         1 VD9       1.146600
      3 O1          -4.2070     0.9370    -0.4500 o          1 VD9      -0.531000
      4 N3          -3.8040    -0.5490     1.4420 n8         1 VD9      -0.997100
      5 C5          -1.7130     0.0640    -0.0590 ca         1 VD9      -0.336500
      6 C10         -1.2530     1.3920     0.0580 ca         1 VD9       0.000500
      7 C9           0.1270     1.6530     0.1180 ca         1 VD9      -0.138000
      8 C8           1.0600     0.6030     0.0620 ca         1 VD9      -0.038000
      9 C7           0.5970    -0.7240    -0.0560 ca         1 VD9      -0.138000
     10 C6          -0.7820    -0.9930    -0.1160 ca         1 VD9       0.000500
     11 S11          2.8060     1.0220     0.1440 ss         1 VD9      -0.149000
     12 C12          3.7160    -0.5820     0.0270 c3         1 VD9       0.042600
     13 C13          5.2370    -0.3430     0.0830 c3         1 VD9      -0.067400
     14 C14          6.0540    -1.6460    -0.0110 c3         1 VD9      -0.090100
     15 H1          -2.9940    -0.1370     1.8980 hn         1 VD9       0.475000
     16 H2          -4.5440     0.1320     1.5970 hn         1 VD9       0.475000
     17 H3          -1.9540     2.2240     0.1030 ha         1 VD9       0.135500
     18 H4           0.4730     2.6800     0.2080 ha         1 VD9       0.125000
     19 H5           1.2870    -1.5600    -0.1020 ha         1 VD9       0.125000
     20 H6          -1.1200    -2.0250    -0.2060 ha         1 VD9       0.135500
     21 H7           3.4130    -1.2270     0.8610 h1         1 VD9       0.066700
     22 H8           3.4540    -1.0740    -0.9180 h1         1 VD9       0.066700
     23 H9           5.5290     0.3230    -0.7390 hc         1 VD9       0.053700
     24 H10          5.4890     0.1720     1.0180 hc         1 VD9       0.053700
     25 H11          7.1280    -1.4290     0.0330 hc         1 VD9       0.037367
     26 H12          5.8060    -2.3200     0.8190 hc         1 VD9       0.037367
     27 H13          5.8470    -2.1670    -0.9540 hc         1 VD9       0.037367
@<TRIPOS>BOND
     1     1     2 2   
     2     2     3 2   
     3     2     4 1   
     4     2     5 1   
     5     4    15 1   
     6     4    16 1   
     7     5     6 ar  
     8     5    10 ar  
     9     6     7 ar  
    10     6    17 1   
    11     7     8 ar  
    12     7    18 1   
    13     8     9 ar  
    14     8    11 1   
    15     9    10 ar  
    16     9    19 1   
    17    10    20 1   
    18    11    12 1   
    19    12    13 1   
    20    12    21 1   
    21    12    22 1   
    22    13    14 1   
    23    13    23 1   
    24    13    24 1   
    25    14    25 1   
    26    14    26 1   
    27    14    27 1   
@<TRIPOS>SUBSTRUCTURE
     1 VD9         1 TEMP              0 ****  ****    0 ROOT
