@<TRIPOS>MOLECULE
VD9
   27    27     1     0     0
SMALL
bcc


@<TRIPOS>ATOM
      1 O4          -3.5340    -1.6440    -0.6750 o          1 VD9      -0.601800
      2 S2          -3.3690    -0.2930    -0.1670 sy         1 VD9       1.288200
      3 O1          -4.0060     0.8260    -0.8410 o          1 VD9      -0.601800
      4 N3          -3.9640    -0.2980     1.3660 n8         1 VD9      -0.886700
      5 C5          -1.6350     0.0420    -0.0720 ca         1 VD9      -0.336500
      6 C10         -1.1930     1.3600    -0.0090 ca         1 VD9      -0.017500
      7 C9           0.1580     1.6210     0.0900 ca         1 VD9      -0.156000
      8 C8           1.0850     0.5720     0.1270 ca         1 VD9       0.088900
      9 C7           0.6270    -0.7430     0.0610 ca         1 VD9      -0.156000
     10 C6          -0.7290    -1.0080    -0.0390 ca         1 VD9      -0.017500
     11 S11          2.7740     1.0160     0.2600 ss         1 VD9      -0.228000
     12 C12          3.6630    -0.5540     0.0690 c3         1 VD9      -0.005300
     13 C13          5.1600    -0.2760     0.0840 c3         1 VD9      -0.067400
     14 C14          5.9580    -1.5600    -0.0920 c3         1 VD9      -0.090100
     15 H1          -3.5710    -1.0220     1.9580 hn         1 VD9       0.419800
     16 H2          -3.9280     0.6060     1.8220 hn         1 VD9       0.419800
     17 H3          -1.8910     2.1850    -0.0460 ha         1 VD9       0.153500
     18 H4           0.4970     2.6490     0.1290 ha         1 VD9       0.143000
     19 H5           1.3150    -1.5750     0.0870 ha         1 VD9       0.143000
     20 H6          -1.0620    -2.0350    -0.0950 ha         1 VD9       0.153500
     21 H7           3.3970    -1.2310     0.8820 h1         1 VD9       0.066700
     22 H8           3.3690    -1.0160    -0.8760 h1         1 VD9       0.066700
     23 H9           5.4110     0.4280    -0.7140 hc         1 VD9       0.053700
     24 H10          5.4350     0.2030     1.0260 hc         1 VD9       0.053700
     25 H11          7.0280    -1.3550    -0.0790 hc         1 VD9       0.037367
     26 H12          5.7470    -2.2720     0.7070 hc         1 VD9       0.037367
     27 H13          5.7240    -2.0450    -1.0420 hc         1 VD9       0.037367
@<TRIPOS>BOND
     1     1     2 2   
     2     2     3 2   
     3     2     4 1   
     4     2     5 1   
     5     4    15 1   
     6     4    16 1   
     7     5     6 ar  
     8     5    10 ar  
     9     6     7 ar  
    10     6    17 1   
    11     7     8 ar  
    12     7    18 1   
    13     8     9 ar  
    14     8    11 1   
    15     9    10 ar  
    16     9    19 1   
    17    10    20 1   
    18    11    12 1   
    19    12    13 1   
    20    12    21 1   
    21    12    22 1   
    22    13    14 1   
    23    13    23 1   
    24    13    24 1   
    25    14    25 1   
    26    14    26 1   
    27    14    27 1   
@<TRIPOS>SUBSTRUCTURE
     1 VD9         1 TEMP              0 ****  ****    0 ROOT
