@<TRIPOS>MOLECULE
VDA
   80    82     1     0     0
SMALL
No Charge or Current Charge


@<TRIPOS>ATOM
      1 O2           6.6910     1.5280     0.2920 oh         1 VDA      -0.701000
      2 C1           5.4080    -1.3070     0.3760 c6         1 VDA       0.161300
      3 C2           6.7110    -0.8820    -0.3850 c6         1 VDA       0.189300
      4 C3           6.6310     0.6240    -0.8300 c6         1 VDA       0.161300
      5 C4           5.3440     0.8830    -1.6580 c6         1 VDA      -0.080200
      6 C5           4.0810     0.4310    -0.9280 c2         1 VDA      -0.099400
      7 C6           3.0390     1.2820    -0.7400 ce         1 VDA      -0.168000
      8 C7           1.7660     0.9900    -0.0490 ce         1 VDA      -0.183000
      9 C8           0.6910     1.8220     0.0120 c2         1 VDA      -0.077400
     10 C9           0.5660     3.2290    -0.5990 c6         1 VDA      -0.041200
     11 C10          4.1460    -1.0330    -0.4830 c6         1 VDA      -0.080200
     12 C11         -0.8210     3.4970    -1.2700 c6         1 VDA      -0.071400
     13 C12         -2.0380     2.9160    -0.4810 c6         1 VDA      -0.059400
     14 C13         -1.7860     1.4310    -0.0880 c5         1 VDA      -0.008800
     15 C14         -0.5280     1.3910     0.8360 c5         1 VDA      -0.037500
     16 C15         -0.6440    -0.0340     1.4600 c5         1 VDA      -0.040200
     17 C16         -2.1490    -0.0640     1.6810 c2         1 VDA      -0.202200
     18 C17         -2.7900     0.7840     0.8590 c2         1 VDA      -0.119400
     19 C18         -1.6990     0.5520    -1.3790 c3         1 VDA      -0.078100
     20 C20         -4.2850     1.0460     0.8050 c3         1 VDA       0.133500
     21 C21         -4.7740     1.8250     2.0410 c3         1 VDA      -0.087100
     22 S22         -5.1630    -0.5780     0.6660 ss         1 VDA      -0.414000
     23 C23         -6.8450    -0.0090     0.1090 c3         1 VDA       0.019600
     24 C25         -7.7520    -1.1960    -0.3380 c3         1 VDA       0.204000
     25 O3          -7.6650    -2.1970     0.6780 oh         1 VDA      -0.647000
     26 C26         -9.2440    -0.7570    -0.4910 c3         1 VDA      -0.086900
     27 C27         -7.2020    -1.8050    -1.6690 c3         1 VDA      -0.086900
     28 O1           5.4370    -2.7000     0.7520 oh         1 VDA      -0.701000
     29 O4           7.8890    -1.1670     0.4220 os         1 VDA      -0.416000
     30 C30          9.1790    -0.9650    -0.1950 c3         1 VDA       0.162600
     31 C31         10.2930    -1.4140     0.7890 c3         1 VDA       0.165600
     32 O5          10.3000    -2.8430     0.9720 oh         1 VDA      -0.703000
     33 C29         -9.9100    -0.1240     0.7560 c3         1 VDA      -0.086600
     34 C28         -7.9520    -3.0400    -2.2270 c3         1 VDA      -0.086600
     35 HO2          6.5890     2.4380    -0.0680 ho         1 VDA       0.498500
     36 H1           5.3370    -0.6860     1.2830 h1         1 VDA       0.047200
     37 H2           6.7780    -1.4960    -1.2950 h1         1 VDA       0.042700
     38 H3           7.4820     0.8240    -1.4970 h1         1 VDA       0.047200
     39 H4           5.2840     1.9450    -1.9330 hc         1 VDA       0.052200
     40 H4A          5.4160     0.3360    -2.6090 hc         1 VDA       0.052200
     41 H6           3.1460     2.2940    -1.1250 ha         1 VDA       0.165000
     42 H7           1.7230     0.0350     0.4630 ha         1 VDA       0.173000
     43 H9           0.7160     3.9630     0.2040 hc         1 VDA       0.045700
     44 H9A          1.3500     3.4270    -1.3380 hc         1 VDA       0.045700
     45 H10          4.1670    -1.6720    -1.3770 hc         1 VDA       0.052200
     46 H10A         3.2570    -1.3390     0.0760 hc         1 VDA       0.052200
     47 H11         -0.9560     4.5780    -1.4080 hc         1 VDA       0.040200
     48 H11A        -0.8120     3.0770    -2.2850 hc         1 VDA       0.040200
     49 H12         -2.2070     3.5160     0.4240 hc         1 VDA       0.041700
     50 H12A        -2.9490     3.0090    -1.0880 hc         1 VDA       0.041700
     51 H14         -0.6470     2.1170     1.6500 hc         1 VDA       0.056700
     52 H15         -0.3300    -0.8460     0.7940 hc         1 VDA       0.054700
     53 H15A        -0.0830    -0.1200     2.3970 hc         1 VDA       0.054700
     54 H16         -2.6520    -0.6670     2.4380 ha         1 VDA       0.201000
     55 H18         -0.8330     0.7980    -2.0030 hc         1 VDA       0.037367
     56 H18A        -1.6250    -0.5150    -1.1440 hc         1 VDA       0.037367
     57 H18B        -2.5970     0.6770    -1.9960 hc         1 VDA       0.037367
     58 H20         -4.5180     1.6310    -0.0940 h1         1 VDA       0.067700
     59 H21         -4.6120     1.2440     2.9560 hc         1 VDA       0.041367
     60 H21A        -4.2290     2.7720     2.1330 hc         1 VDA       0.041367
     61 H21B        -5.8420     2.0570     1.9620 hc         1 VDA       0.041367
     62 H23         -7.3060     0.5260     0.9470 h1         1 VDA       0.059700
     63 H23A        -6.7320     0.6990    -0.7220 h1         1 VDA       0.059700
     64 HO3         -6.7470    -2.1210     1.0200 ho         1 VDA       0.444000
     65 H26         -9.3250    -0.0500    -1.3250 hc         1 VDA       0.049450
     66 H26A        -9.8470    -1.6290    -0.7680 hc         1 VDA       0.049450
     67 H27         -7.2000    -1.0260    -2.4420 hc         1 VDA       0.049450
     68 H27A        -6.1530    -2.0930    -1.5310 hc         1 VDA       0.049450
     69 HO1          4.7320    -2.8270     1.4270 ho         1 VDA       0.498500
     70 H30          9.2610    -1.5380    -1.1290 h1         1 VDA       0.024200
     71 H30A         9.3330     0.0950    -0.4310 h1         1 VDA       0.024200
     72 H31         11.2610    -1.0860     0.3870 h1         1 VDA       0.023200
     73 H31A        10.1470    -0.9030     1.7500 h1         1 VDA       0.023200
     74 HO5         10.9850    -3.0410     1.6520 ho         1 VDA       0.497000
     75 H29         -9.8050    -0.7720     1.6340 hc         1 VDA       0.034700
     76 H29A        -9.4770     0.8560     0.9880 hc         1 VDA       0.034700
     77 H29B       -10.9810     0.0260     0.5730 hc         1 VDA       0.034700
     78 H28         -8.0140    -3.8390    -1.4780 hc         1 VDA       0.034700
     79 H28A        -8.9680    -2.7800    -2.5470 hc         1 VDA       0.034700
     80 H28B        -7.4220    -3.4380    -3.1010 hc         1 VDA       0.034700
@<TRIPOS>BOND
     1     1     4 1   
     2     1    35 1   
     3     2     3 1   
     4     2    11 1   
     5     2    28 1   
     6     2    36 1   
     7     3     4 1   
     8     3    29 1   
     9     3    37 1   
    10     4     5 1   
    11     4    38 1   
    12     5     6 1   
    13     5    39 1   
    14     5    40 1   
    15     6     7 2   
    16     6    11 1   
    17     7     8 1   
    18     7    41 1   
    19     8     9 2   
    20     8    42 1   
    21     9    10 1   
    22     9    15 1   
    23    10    12 1   
    24    10    43 1   
    25    10    44 1   
    26    11    45 1   
    27    11    46 1   
    28    12    13 1   
    29    12    47 1   
    30    12    48 1   
    31    13    14 1   
    32    13    49 1   
    33    13    50 1   
    34    14    15 1   
    35    14    18 1   
    36    14    19 1   
    37    15    16 1   
    38    15    51 1   
    39    16    17 1   
    40    16    52 1   
    41    16    53 1   
    42    17    18 2   
    43    17    54 1   
    44    18    20 1   
    45    19    55 1   
    46    19    56 1   
    47    19    57 1   
    48    20    21 1   
    49    20    22 1   
    50    20    58 1   
    51    21    59 1   
    52    21    60 1   
    53    21    61 1   
    54    22    23 1   
    55    23    24 1   
    56    23    62 1   
    57    23    63 1   
    58    24    25 1   
    59    24    26 1   
    60    24    27 1   
    61    25    64 1   
    62    26    33 1   
    63    26    65 1   
    64    26    66 1   
    65    27    34 1   
    66    27    67 1   
    67    27    68 1   
    68    28    69 1   
    69    29    30 1   
    70    30    31 1   
    71    30    70 1   
    72    30    71 1   
    73    31    32 1   
    74    31    72 1   
    75    31    73 1   
    76    32    74 1   
    77    33    75 1   
    78    33    76 1   
    79    33    77 1   
    80    34    78 1   
    81    34    79 1   
    82    34    80 1   
@<TRIPOS>SUBSTRUCTURE
     1 VDA         1 TEMP              0 ****  ****    0 ROOT
