@<TRIPOS>MOLECULE
VDA
   80    82     1     0     0
SMALL
bcc


@<TRIPOS>ATOM
      1 O2           6.4380     1.3780     0.5750 oh         1 VDA      -0.578800
      2 C1           5.3610    -1.3170     0.2060 c6         1 VDA       0.138100
      3 C2           6.6530    -0.7770    -0.3980 c6         1 VDA       0.166100
      4 C3           6.5620     0.7260    -0.6670 c6         1 VDA       0.138100
      5 C4           5.3760     1.0180    -1.5870 c6         1 VDA      -0.080200
      6 C5           4.1050     0.5100    -0.9790 c2         1 VDA      -0.099400
      7 C6           3.0760     1.3300    -0.7190 ce         1 VDA      -0.118000
      8 C7           1.8150     0.9730    -0.0950 ce         1 VDA      -0.133000
      9 C8           0.7750     1.7950     0.1090 c2         1 VDA      -0.077400
     10 C9           0.6960     3.2500    -0.2780 c6         1 VDA      -0.041200
     11 C10          4.1600    -0.9570    -0.6770 c6         1 VDA      -0.080200
     12 C11         -0.5550     3.5820    -1.1110 c6         1 VDA      -0.071400
     13 C12         -1.8550     3.0060    -0.5350 c6         1 VDA      -0.059400
     14 C13         -1.6900     1.5210    -0.2190 c5         1 VDA      -0.008800
     15 C14         -0.5010     1.3750     0.7590 c5         1 VDA      -0.037500
     16 C15         -0.7220     0.0190     1.4220 c5         1 VDA      -0.040200
     17 C16         -2.2280    -0.0290     1.4500 c2         1 VDA      -0.152200
     18 C17         -2.7770     0.8230     0.5810 c2         1 VDA      -0.119400
     19 C18         -1.4860     0.7180    -1.5120 c3         1 VDA      -0.078100
     20 C20         -4.2360     1.0500     0.3180 c3         1 VDA       0.085600
     21 C21         -4.8050     2.1110     1.2580 c3         1 VDA      -0.087100
     22 S22         -5.1060    -0.5500     0.4710 ss         1 VDA      -0.318200
     23 C23         -6.8120    -0.0450     0.1020 c3         1 VDA      -0.028300
     24 C25         -7.6780    -1.2740    -0.2230 c3         1 VDA       0.180800
     25 O3          -7.3910    -2.3200     0.6870 oh         1 VDA      -0.584800
     26 C26         -9.1640    -0.8760    -0.1640 c3         1 VDA      -0.086900
     27 C27         -7.3290    -1.7900    -1.6240 c3         1 VDA      -0.086900
     28 O1           5.5010    -2.7140     0.3250 oh         1 VDA      -0.578800
     29 O4           7.7080    -1.1000     0.4690 os         1 VDA      -0.369600
     30 C30          8.9770    -1.1200    -0.1350 c3         1 VDA       0.139400
     31 C31         10.0140    -1.5390     0.8760 c3         1 VDA       0.142400
     32 O5           9.7810    -2.8710     1.2730 oh         1 VDA      -0.580800
     33 C29         -9.6990    -0.5150     1.2170 c3         1 VDA      -0.086600
     34 C28         -7.9000    -3.1550    -1.9830 c3         1 VDA      -0.086600
     35 HO2          6.2750     2.3120     0.4090 ho         1 VDA       0.399500
     36 H1           5.2130    -0.8590     1.1940 h1         1 VDA       0.047200
     37 H2           6.7990    -1.2680    -1.3760 h1         1 VDA       0.042700
     38 H3           7.4780     1.0480    -1.1830 h1         1 VDA       0.047200
     39 H4           5.3180     2.0900    -1.7960 hc         1 VDA       0.052200
     40 H4A          5.5610     0.5240    -2.5490 hc         1 VDA       0.052200
     41 H6           3.2060     2.3700    -1.0030 ha         1 VDA       0.115000
     42 H7           1.7100    -0.0520     0.2460 ha         1 VDA       0.123000
     43 H9           0.6570     3.8390     0.6470 hc         1 VDA       0.045700
     44 H9A          1.5810     3.5880    -0.8170 hc         1 VDA       0.045700
     45 H10          4.2580    -1.5090    -1.6200 hc         1 VDA       0.052200
     46 H10A         3.2470    -1.3170    -0.2010 hc         1 VDA       0.052200
     47 H11         -0.6440     4.6670    -1.1890 hc         1 VDA       0.040200
     48 H11A        -0.4100     3.2210    -2.1310 hc         1 VDA       0.040200
     49 H12         -2.1160     3.5440     0.3830 hc         1 VDA       0.041700
     50 H12A        -2.6720     3.1760    -1.2430 hc         1 VDA       0.041700
     51 H14         -0.6990     2.1150     1.5480 hc         1 VDA       0.056700
     52 H15         -0.3180    -0.8190     0.8440 hc         1 VDA       0.054700
     53 H15A        -0.2720    -0.0400     2.4150 hc         1 VDA       0.054700
     54 H16         -2.7790    -0.7110     2.0870 ha         1 VDA       0.151000
     55 H18         -0.6630     1.1040    -2.1120 hc         1 VDA       0.037367
     56 H18A        -1.2710    -0.3310    -1.3030 hc         1 VDA       0.037367
     57 H18B        -2.3880     0.7570    -2.1270 hc         1 VDA       0.037367
     58 H20         -4.3660     1.3890    -0.7160 h1         1 VDA       0.067700
     59 H21         -4.7510     1.7720     2.2920 hc         1 VDA       0.041367
     60 H21A        -4.2360     3.0380     1.1750 hc         1 VDA       0.041367
     61 H21B        -5.8430     2.3430     1.0220 hc         1 VDA       0.041367
     62 H23         -7.2150     0.4940     0.9610 h1         1 VDA       0.059700
     63 H23A        -6.8120     0.6450    -0.7460 h1         1 VDA       0.059700
     64 HO3         -7.5670    -2.0150     1.5830 ho         1 VDA       0.405000
     65 H26         -9.3190    -0.0350    -0.8450 hc         1 VDA       0.049450
     66 H26A        -9.7630    -1.6990    -0.5620 hc         1 VDA       0.049450
     67 H27         -7.6820    -1.0440    -2.3420 hc         1 VDA       0.049450
     68 H27A        -6.2410    -1.8210    -1.7320 hc         1 VDA       0.049450
     69 HO1          4.6920    -3.0620     0.7130 ho         1 VDA       0.399500
     70 H30          8.9890    -1.8080    -0.9930 h1         1 VDA       0.024200
     71 H30A         9.2670    -0.1320    -0.5150 h1         1 VDA       0.024200
     72 H31         10.9970    -1.4200     0.4020 h1         1 VDA       0.023200
     73 H31A         9.9890    -0.8480     1.7290 h1         1 VDA       0.023200
     74 HO5         10.4510    -3.1090     1.9190 ho         1 VDA       0.398000
     75 H29         -9.6200    -1.3470     1.9190 hc         1 VDA       0.034700
     76 H29A        -9.1910     0.3440     1.6550 hc         1 VDA       0.034700
     77 H29B       -10.7570    -0.2610     1.1530 hc         1 VDA       0.034700
     78 H28         -7.4710    -3.9470    -1.3700 hc         1 VDA       0.034700
     79 H28A        -8.9840    -3.1990    -1.8710 hc         1 VDA       0.034700
     80 H28B        -7.6750    -3.3900    -3.0240 hc         1 VDA       0.034700
@<TRIPOS>BOND
     1     1     4 1   
     2     1    35 1   
     3     2     3 1   
     4     2    11 1   
     5     2    28 1   
     6     2    36 1   
     7     3     4 1   
     8     3    29 1   
     9     3    37 1   
    10     4     5 1   
    11     4    38 1   
    12     5     6 1   
    13     5    39 1   
    14     5    40 1   
    15     6     7 2   
    16     6    11 1   
    17     7     8 1   
    18     7    41 1   
    19     8     9 2   
    20     8    42 1   
    21     9    10 1   
    22     9    15 1   
    23    10    12 1   
    24    10    43 1   
    25    10    44 1   
    26    11    45 1   
    27    11    46 1   
    28    12    13 1   
    29    12    47 1   
    30    12    48 1   
    31    13    14 1   
    32    13    49 1   
    33    13    50 1   
    34    14    15 1   
    35    14    18 1   
    36    14    19 1   
    37    15    16 1   
    38    15    51 1   
    39    16    17 1   
    40    16    52 1   
    41    16    53 1   
    42    17    18 2   
    43    17    54 1   
    44    18    20 1   
    45    19    55 1   
    46    19    56 1   
    47    19    57 1   
    48    20    21 1   
    49    20    22 1   
    50    20    58 1   
    51    21    59 1   
    52    21    60 1   
    53    21    61 1   
    54    22    23 1   
    55    23    24 1   
    56    23    62 1   
    57    23    63 1   
    58    24    25 1   
    59    24    26 1   
    60    24    27 1   
    61    25    64 1   
    62    26    33 1   
    63    26    65 1   
    64    26    66 1   
    65    27    34 1   
    66    27    67 1   
    67    27    68 1   
    68    28    69 1   
    69    29    30 1   
    70    30    31 1   
    71    30    70 1   
    72    30    71 1   
    73    31    32 1   
    74    31    72 1   
    75    31    73 1   
    76    32    74 1   
    77    33    75 1   
    78    33    76 1   
    79    33    77 1   
    80    34    78 1   
    81    34    79 1   
    82    34    80 1   
@<TRIPOS>SUBSTRUCTURE
     1 VDA         1 TEMP              0 ****  ****    0 ROOT
