@<TRIPOS>MOLECULE
VDB
   80    82     1     0     0
SMALL
No Charge or Current Charge


@<TRIPOS>ATOM
      1 C29          9.6570     1.4190    -0.0960 c3         1 VDB      -0.086100
      2 C26          8.9100     0.1500     0.3850 c3         1 VDB      -0.084900
      3 C25          7.4510    -0.0290    -0.1380 c3         1 VDB       0.203000
      4 C27          6.5320     1.1940     0.1810 c3         1 VDB      -0.084900
      5 C28          6.3740     1.5570     1.6770 c3         1 VDB      -0.086100
      6 O3           7.5000    -0.1590    -1.5600 oh         1 VDB      -0.649000
      7 C23          6.8580    -1.3650     0.4030 c3         1 VDB       0.023600
      8 S22          5.3180    -1.8800    -0.5090 ss         1 VDB      -0.415000
      9 C20          4.0200    -1.5060     0.7580 c3         1 VDB       0.137500
     10 C21          3.9900    -2.6100     1.8320 c3         1 VDB      -0.084100
     11 C17          2.6830    -1.3640     0.0500 c2         1 VDB      -0.116400
     12 C16          2.0750    -2.2910    -0.7100 c2         1 VDB      -0.204200
     13 C15          0.7430    -1.7930    -1.2490 c5         1 VDB      -0.040200
     14 C14          1.0160    -0.2590    -1.1700 c5         1 VDB      -0.040500
     15 C13          1.7770    -0.1460     0.1890 c5         1 VDB      -0.007800
     16 C18          0.8960    -0.3380     1.4680 c3         1 VDB      -0.080100
     17 C12          2.4610     1.2520     0.2310 c6         1 VDB      -0.060400
     18 C11          1.3990     2.3950     0.1600 c6         1 VDB      -0.071400
     19 C9           0.3480     2.2230    -0.9850 c6         1 VDB      -0.041200
     20 C8          -0.1200     0.7700    -1.1770 c2         1 VDB      -0.076400
     21 C7          -1.3890     0.3390    -1.4120 ce         1 VDB      -0.187000
     22 C6          -2.5820     1.2040    -1.5180 ce         1 VDB      -0.168000
     23 C5          -3.8750     0.7970    -1.5960 c2         1 VDB      -0.099400
     24 C10         -5.0170     1.8040    -1.7100 c6         1 VDB      -0.080200
     25 C1          -6.0420     1.6300    -0.5590 c6         1 VDB       0.160800
     26 O1          -7.1170     2.5760    -0.7270 oh         1 VDB      -0.701000
     27 C4          -4.3710    -0.6510    -1.5560 c6         1 VDB      -0.080200
     28 C3          -5.3770    -0.8700    -0.3990 c6         1 VDB       0.160800
     29 O2          -4.6810    -0.7980     0.8600 oh         1 VDB      -0.701000
     30 C2          -6.5690     0.1540    -0.4900 c6         1 VDB       0.189300
     31 O4          -7.5170     0.0070     0.6040 os         1 VDB      -0.416000
     32 C30         -8.2060    -1.2580     0.7180 c3         1 VDB       0.162600
     33 C31         -9.2330    -1.1780     1.8790 c3         1 VDB       0.165600
     34 O5         -10.3290    -0.2960     1.5640 oh         1 VDB      -0.703000
     35 H29         10.6910     1.4080     0.2670 hc         1 VDB       0.035033
     36 H29A         9.6840     1.4710    -1.1910 hc         1 VDB       0.035033
     37 H29B         9.1800     2.3300     0.2850 hc         1 VDB       0.035033
     38 H26          9.5010    -0.7230     0.0810 hc         1 VDB       0.049700
     39 H26A         8.9070     0.1410     1.4820 hc         1 VDB       0.049700
     40 H27          6.9080     2.0780    -0.3490 hc         1 VDB       0.049700
     41 H27A         5.5350     1.0120    -0.2350 hc         1 VDB       0.049700
     42 H28          5.9690     0.7200     2.2560 hc         1 VDB       0.035033
     43 H28A         7.3340     1.8500     2.1170 hc         1 VDB       0.035033
     44 H28B         5.6850     2.4030     1.7860 hc         1 VDB       0.035033
     45 HO3          6.7280    -0.7260    -1.7820 ho         1 VDB       0.443000
     46 H23          7.6000    -2.1630     0.2710 h1         1 VDB       0.057200
     47 H23A         6.6540    -1.2880     1.4770 h1         1 VDB       0.057200
     48 H20          4.2770    -0.5590     1.2450 h1         1 VDB       0.065700
     49 H21          3.7770    -3.5870     1.3820 hc         1 VDB       0.041700
     50 H21A         4.9510    -2.6740     2.3550 hc         1 VDB       0.041700
     51 H21B         3.2130    -2.3970     2.5750 hc         1 VDB       0.041700
     52 H16          2.5090    -3.2670    -0.9350 ha         1 VDB       0.201000
     53 H15          0.5580    -2.1250    -2.2770 hc         1 VDB       0.052700
     54 H15A        -0.0870    -2.1360    -0.6210 hc         1 VDB       0.052700
     55 H14          1.6960    -0.0030    -1.9940 hc         1 VDB       0.058700
     56 H18          1.4900    -0.1860     2.3760 hc         1 VDB       0.037367
     57 H18A         0.0490     0.3550     1.5080 hc         1 VDB       0.037367
     58 H18B         0.4780    -1.3500     1.5290 hc         1 VDB       0.037367
     59 H12          3.0620     1.3650     1.1440 hc         1 VDB       0.042200
     60 H12A         3.1560     1.3490    -0.6140 hc         1 VDB       0.042200
     61 H11          0.8710     2.4620     1.1200 hc         1 VDB       0.041200
     62 H11A         1.9080     3.3620     0.0440 hc         1 VDB       0.041200
     63 H9          -0.4900     2.9000    -0.7880 hc         1 VDB       0.046700
     64 H9A          0.7960     2.5630    -1.9290 hc         1 VDB       0.046700
     65 H7          -1.5670    -0.7200    -1.5670 ha         1 VDB       0.168000
     66 H6          -2.3900     2.2750    -1.5510 ha         1 VDB       0.170000
     67 H10         -4.6260     2.8310    -1.7050 hc         1 VDB       0.052200
     68 H10A        -5.5190     1.6720    -2.6790 hc         1 VDB       0.052200
     69 H1          -5.5200     1.8390     0.3870 h1         1 VDB       0.046200
     70 HO1         -6.7430     3.4680    -0.5430 ho         1 VDB       0.498500
     71 H4          -4.8650    -0.8820    -2.5100 hc         1 VDB       0.052200
     72 H4A         -3.5590    -1.3790    -1.4660 hc         1 VDB       0.052200
     73 H3          -5.7920    -1.8810    -0.5210 h1         1 VDB       0.046200
     74 HO2         -3.9450    -0.1590     0.7280 ho         1 VDB       0.498500
     75 H2          -7.1100    -0.0470    -1.4260 h1         1 VDB       0.043700
     76 H30         -8.7260    -1.5070    -0.2160 h1         1 VDB       0.024200
     77 H30A        -7.4960    -2.0650     0.9390 h1         1 VDB       0.024200
     78 H31         -9.6150    -2.1890     2.0730 h1         1 VDB       0.023200
     79 H31A        -8.7190    -0.8420     2.7900 h1         1 VDB       0.023200
     80 HO5        -10.9010    -0.2530     2.3650 ho         1 VDB       0.497000
@<TRIPOS>BOND
     1     1     2 1   
     2     1    35 1   
     3     1    36 1   
     4     1    37 1   
     5     2     3 1   
     6     2    38 1   
     7     2    39 1   
     8     3     4 1   
     9     3     6 1   
    10     3     7 1   
    11     4     5 1   
    12     4    40 1   
    13     4    41 1   
    14     5    42 1   
    15     5    43 1   
    16     5    44 1   
    17     6    45 1   
    18     7     8 1   
    19     7    46 1   
    20     7    47 1   
    21     8     9 1   
    22     9    10 1   
    23     9    11 1   
    24     9    48 1   
    25    10    49 1   
    26    10    50 1   
    27    10    51 1   
    28    11    12 2   
    29    11    15 1   
    30    12    13 1   
    31    12    52 1   
    32    13    14 1   
    33    13    53 1   
    34    13    54 1   
    35    14    15 1   
    36    14    20 1   
    37    14    55 1   
    38    15    16 1   
    39    15    17 1   
    40    16    56 1   
    41    16    57 1   
    42    16    58 1   
    43    17    18 1   
    44    17    59 1   
    45    17    60 1   
    46    18    19 1   
    47    18    61 1   
    48    18    62 1   
    49    19    20 1   
    50    19    63 1   
    51    19    64 1   
    52    20    21 2   
    53    21    22 1   
    54    21    65 1   
    55    22    23 2   
    56    22    66 1   
    57    23    24 1   
    58    23    27 1   
    59    24    25 1   
    60    24    67 1   
    61    24    68 1   
    62    25    26 1   
    63    25    30 1   
    64    25    69 1   
    65    26    70 1   
    66    27    28 1   
    67    27    71 1   
    68    27    72 1   
    69    28    29 1   
    70    28    30 1   
    71    28    73 1   
    72    29    74 1   
    73    30    31 1   
    74    30    75 1   
    75    31    32 1   
    76    32    33 1   
    77    32    76 1   
    78    32    77 1   
    79    33    34 1   
    80    33    78 1   
    81    33    79 1   
    82    34    80 1   
@<TRIPOS>SUBSTRUCTURE
     1 VDB         1 TEMP              0 ****  ****    0 ROOT
