@<TRIPOS>MOLECULE
VDB
   80    82     1     0     0
SMALL
bcc


@<TRIPOS>ATOM
      1 C29         10.3820    -1.3080     0.4530 c3         1 VDB      -0.086100
      2 C26          9.0420    -0.7800     0.9450 c3         1 VDB      -0.084900
      3 C25          7.8470    -1.0850     0.0260 c3         1 VDB       0.179800
      4 C27          8.0760    -0.5880    -1.4050 c3         1 VDB      -0.084900
      5 C28          8.3150     0.9080    -1.5400 c3         1 VDB      -0.086100
      6 O3           7.6640    -2.4850    -0.0950 oh         1 VDB      -0.586800
      7 C23          6.6060    -0.4520     0.6680 c3         1 VDB      -0.024300
      8 S22          5.0880    -0.9290    -0.2040 ss         1 VDB      -0.319200
      9 C20          3.8640     0.0180     0.7710 c3         1 VDB       0.089600
     10 C21          3.6950    -0.5890     2.1620 c3         1 VDB      -0.084100
     11 C17          2.5740     0.1220     0.0130 c2         1 VDB      -0.116400
     12 C16          2.2360    -0.4730    -1.1340 c2         1 VDB      -0.154200
     13 C15          0.8640    -0.0660    -1.6110 c5         1 VDB      -0.040200
     14 C14          0.6750     1.2290    -0.8260 c5         1 VDB      -0.040500
     15 C13          1.3970     0.9530     0.5170 c5         1 VDB      -0.007800
     16 C18          0.5220     0.0830     1.4330 c3         1 VDB      -0.080100
     17 C12          1.7050     2.2980     1.1700 c6         1 VDB      -0.060400
     18 C11          0.4160     3.0990     1.3780 c6         1 VDB      -0.071400
     19 C9          -0.4600     3.1980     0.1170 c6         1 VDB      -0.041200
     20 C8          -0.6480     1.8730    -0.5800 c2         1 VDB      -0.076400
     21 C7          -1.8190     1.3120    -0.9150 ce         1 VDB      -0.137000
     22 C6          -3.1390     1.8400    -0.6250 ce         1 VDB      -0.118000
     23 C5          -4.3130     1.2800    -0.9540 c2         1 VDB      -0.099400
     24 C10         -5.6190     1.8950    -0.5490 c6         1 VDB      -0.080200
     25 C1          -6.4710     0.9260     0.2790 c6         1 VDB       0.137600
     26 O1          -7.7510     1.4590     0.5300 oh         1 VDB      -0.578800
     27 C4          -4.4930    -0.0060    -1.7020 c6         1 VDB      -0.080200
     28 C3          -5.3110    -0.9980    -0.8720 c6         1 VDB       0.137600
     29 O2          -4.6430    -1.3630     0.3140 oh         1 VDB      -0.578800
     30 C2          -6.6570    -0.3840    -0.4780 c6         1 VDB       0.166100
     31 O4          -7.4190    -1.2520     0.3210 os         1 VDB      -0.369600
     32 C30         -8.0850    -2.2670    -0.3880 c3         1 VDB       0.139400
     33 C31         -8.8970    -3.1080     0.5640 c3         1 VDB       0.142400
     34 O5          -9.9280    -2.3300     1.1270 oh         1 VDB      -0.580800
     35 H29         11.1510    -1.1520     1.2100 hc         1 VDB       0.035033
     36 H29A        10.3390    -2.3770     0.2430 hc         1 VDB       0.035033
     37 H29B        10.7160    -0.8030    -0.4540 hc         1 VDB       0.035033
     38 H26          8.8250    -1.2070     1.9310 hc         1 VDB       0.049700
     39 H26A         9.1100     0.2990     1.1030 hc         1 VDB       0.049700
     40 H27          8.9290    -1.1300    -1.8220 hc         1 VDB       0.049700
     41 H27A         7.2160    -0.8690    -2.0170 hc         1 VDB       0.049700
     42 H28          7.4580     1.4910    -1.1990 hc         1 VDB       0.035033
     43 H28A         9.1870     1.2420    -0.9760 hc         1 VDB       0.035033
     44 H28B         8.4860     1.1690    -2.5840 hc         1 VDB       0.035033
     45 HO3          7.5000    -2.8490     0.7820 ho         1 VDB       0.404000
     46 H23          6.5410    -0.7720     1.7120 h1         1 VDB       0.057200
     47 H23A         6.6890     0.6360     0.6740 h1         1 VDB       0.057200
     48 H20          4.2670     1.0310     0.8830 h1         1 VDB       0.065700
     49 H21          3.2340    -1.5750     2.1030 hc         1 VDB       0.041700
     50 H21A         4.6560    -0.6920     2.6650 hc         1 VDB       0.041700
     51 H21B         3.0750     0.0430     2.7980 hc         1 VDB       0.041700
     52 H16          2.8510    -1.1720    -1.6860 ha         1 VDB       0.151000
     53 H15          0.8200     0.0870    -2.6910 hc         1 VDB       0.052700
     54 H15A         0.1160    -0.8310    -1.3740 hc         1 VDB       0.052700
     55 H14          1.2990     1.9750    -1.3420 hc         1 VDB       0.058700
     56 H18          1.0240    -0.1370     2.3730 hc         1 VDB       0.037367
     57 H18A        -0.4240     0.5660     1.6740 hc         1 VDB       0.037367
     58 H18B         0.2830    -0.8710     0.9590 hc         1 VDB       0.037367
     59 H12          2.2150     2.1750     2.1310 hc         1 VDB       0.042200
     60 H12A         2.3850     2.8630     0.5230 hc         1 VDB       0.042200
     61 H11         -0.1680     2.6500     2.1850 hc         1 VDB       0.041200
     62 H11A         0.6630     4.1080     1.7130 hc         1 VDB       0.041200
     63 H9          -1.4080     3.6690     0.3770 hc         1 VDB       0.046700
     64 H9A          0.0350     3.8740    -0.5910 hc         1 VDB       0.046700
     65 H7          -1.7770     0.3600    -1.4340 ha         1 VDB       0.118000
     66 H6          -3.1820     2.7730    -0.0720 ha         1 VDB       0.120000
     67 H10         -5.4570     2.8140     0.0200 hc         1 VDB       0.052200
     68 H10A        -6.1910     2.1670    -1.4460 hc         1 VDB       0.052200
     69 H1          -5.9450     0.7210     1.2210 h1         1 VDB       0.046200
     70 HO1         -7.6420     2.2620     1.0480 ho         1 VDB       0.399500
     71 H4          -5.0310     0.1890    -2.6370 hc         1 VDB       0.052200
     72 H4A         -3.5470    -0.4690    -1.9890 hc         1 VDB       0.052200
     73 H3          -5.4980    -1.8830    -1.4990 h1         1 VDB       0.046200
     74 HO2         -3.7650    -1.6770     0.0780 ho         1 VDB       0.399500
     75 H2          -7.1940    -0.1560    -1.4150 h1         1 VDB       0.043700
     76 H30         -8.7390    -1.8380    -1.1610 h1         1 VDB       0.024200
     77 H30A        -7.3850    -2.9380    -0.9030 h1         1 VDB       0.024200
     78 H31         -9.2900    -3.9570    -0.0090 h1         1 VDB       0.023200
     79 H31A        -8.2350    -3.5250     1.3340 h1         1 VDB       0.023200
     80 HO5        -10.4240    -2.8880     1.7320 ho         1 VDB       0.398000
@<TRIPOS>BOND
     1     1     2 1   
     2     1    35 1   
     3     1    36 1   
     4     1    37 1   
     5     2     3 1   
     6     2    38 1   
     7     2    39 1   
     8     3     4 1   
     9     3     6 1   
    10     3     7 1   
    11     4     5 1   
    12     4    40 1   
    13     4    41 1   
    14     5    42 1   
    15     5    43 1   
    16     5    44 1   
    17     6    45 1   
    18     7     8 1   
    19     7    46 1   
    20     7    47 1   
    21     8     9 1   
    22     9    10 1   
    23     9    11 1   
    24     9    48 1   
    25    10    49 1   
    26    10    50 1   
    27    10    51 1   
    28    11    12 2   
    29    11    15 1   
    30    12    13 1   
    31    12    52 1   
    32    13    14 1   
    33    13    53 1   
    34    13    54 1   
    35    14    15 1   
    36    14    20 1   
    37    14    55 1   
    38    15    16 1   
    39    15    17 1   
    40    16    56 1   
    41    16    57 1   
    42    16    58 1   
    43    17    18 1   
    44    17    59 1   
    45    17    60 1   
    46    18    19 1   
    47    18    61 1   
    48    18    62 1   
    49    19    20 1   
    50    19    63 1   
    51    19    64 1   
    52    20    21 2   
    53    21    22 1   
    54    21    65 1   
    55    22    23 2   
    56    22    66 1   
    57    23    24 1   
    58    23    27 1   
    59    24    25 1   
    60    24    67 1   
    61    24    68 1   
    62    25    26 1   
    63    25    30 1   
    64    25    69 1   
    65    26    70 1   
    66    27    28 1   
    67    27    71 1   
    68    27    72 1   
    69    28    29 1   
    70    28    30 1   
    71    28    73 1   
    72    29    74 1   
    73    30    31 1   
    74    30    75 1   
    75    31    32 1   
    76    32    33 1   
    77    32    76 1   
    78    32    77 1   
    79    33    34 1   
    80    33    78 1   
    81    33    79 1   
    82    34    80 1   
@<TRIPOS>SUBSTRUCTURE
     1 VDB         1 TEMP              0 ****  ****    0 ROOT
