@<TRIPOS>MOLECULE
VDD
   20    20     1     0     0
SMALL
No Charge or Current Charge


@<TRIPOS>ATOM
      1 C7          26.8740    15.6520    38.7070 ca         1 VDD       0.344900
      2 C1          29.9360    16.2560    41.7930 c3         1 VDD      -0.043700
      3 C5          28.3340    14.5690    37.1050 ca         1 VDD      -0.073000
      4 C6          27.0390    14.8970    37.5330 ca         1 VDD      -0.214000
      5 C4          29.4130    15.0150    37.8830 ca         1 VDD      -0.170000
      6 C3          29.1610    15.7570    39.0500 ca         1 VDD       0.465300
      7 C2          30.8820    17.0170    42.7650 c          1 VDD       0.727000
      8 O           30.5560    18.1430    43.1170 o          1 VDD      -0.715000
      9 C           29.7170    14.7800    42.2030 c3         1 VDD      -0.064100
     10 S           30.5400    16.3450    40.0270 ss         1 VDD      -0.346300
     11 N           27.9130    16.0820    39.4560 nb         1 VDD      -0.681000
     12 H1          25.8800    15.9230    39.0580 h4         1 VDD       0.003100
     13 H3          28.9690    16.7710    41.8440 h1         1 VDD       0.074700
     14 H4          28.4970    13.9890    36.1990 ha         1 VDD       0.099000
     15 H5          26.1690    14.5760    36.9660 ha         1 VDD       0.104000
     16 H6          30.4350    14.7890    37.5930 ha         1 VDD       0.125000
     17 H7          29.3620    14.7200    43.2390 hc         1 VDD       0.027033
     18 H8          28.9680    14.3020    41.5620 hc         1 VDD       0.027033
     19 H9          30.6490    14.2080    42.1240 hc         1 VDD       0.027033
     20 O1          31.9000    16.4630    43.1620 o          1 VDD      -0.715000
@<TRIPOS>BOND
     1     1     4 ar  
     2     1    11 ar  
     3     1    12 1   
     4     2     7 1   
     5     2     9 1   
     6     2    10 1   
     7     2    13 1   
     8     3     4 ar  
     9     3     5 ar  
    10     3    14 1   
    11     4    15 1   
    12     5     6 ar  
    13     5    16 1   
    14     6    10 1   
    15     6    11 ar  
    16     7     8 1   
    17     7    20 1   
    18     9    17 1   
    19     9    18 1   
    20     9    19 1   
@<TRIPOS>SUBSTRUCTURE
     1 VDD         1 TEMP              0 ****  ****    0 ROOT
