@<TRIPOS>MOLECULE
VDD
   20    20     1     0     0
SMALL
abcg2


@<TRIPOS>ATOM
      1 C7          26.9490    15.4070    38.7920 ca         1 VDD       0.344900
      2 C1          29.9270    16.2360    41.7370 c3         1 VDD      -0.043700
      3 C5          28.3700    14.7630    36.9930 ca         1 VDD      -0.073000
      4 C6          27.0810    14.9400    37.4950 ca         1 VDD      -0.214000
      5 C4          29.4530    15.0560    37.8000 ca         1 VDD      -0.170000
      6 C3          29.2170    15.5300    39.0990 ca         1 VDD       0.465300
      7 C2          30.9800    16.9700    42.6000 c          1 VDD       0.727000
      8 O           30.5150    17.6220    43.5660 o          1 VDD      -0.715000
      9 C           29.4950    14.9380    42.4160 c3         1 VDD      -0.064100
     10 S           30.6400    15.9310    40.0780 ss         1 VDD      -0.346300
     11 N           27.9880    15.7010    39.5850 nb         1 VDD      -0.681000
     12 H1          25.9650    15.5560    39.2250 h4         1 VDD       0.003100
     13 H3          29.0650    16.8840    41.5970 h1         1 VDD       0.074700
     14 H4          28.5260    14.3950    35.9870 ha         1 VDD       0.099000
     15 H5          26.2070    14.7200    36.8980 ha         1 VDD       0.104000
     16 H6          30.4670    14.9200    37.4470 ha         1 VDD       0.125000
     17 H7          29.0500    15.1650    43.3870 hc         1 VDD       0.027033
     18 H8          28.7550    14.4120    41.8140 hc         1 VDD       0.027033
     19 H9          30.3540    14.2810    42.5700 hc         1 VDD       0.027033
     20 O1          32.1900    16.8230    42.3000 o          1 VDD      -0.715000
@<TRIPOS>BOND
     1     1     4 ar  
     2     1    11 ar  
     3     1    12 1   
     4     2     7 1   
     5     2     9 1   
     6     2    10 1   
     7     2    13 1   
     8     3     4 ar  
     9     3     5 ar  
    10     3    14 1   
    11     4    15 1   
    12     5     6 ar  
    13     5    16 1   
    14     6    10 1   
    15     6    11 ar  
    16     7     8 1   
    17     7    20 1   
    18     9    17 1   
    19     9    18 1   
    20     9    19 1   
@<TRIPOS>SUBSTRUCTURE
     1 VDD         1 TEMP              0 ****  ****    0 ROOT
