@<TRIPOS>MOLECULE
VDE
   39    39     1     0     0
SMALL
abcg2


@<TRIPOS>ATOM
      1 CA         -43.8180    24.6270   -21.4560 c3         1 VDE       0.023500
      2 C17        -45.2120    25.0220   -21.9530 c3         1 VDE      -0.052400
      3 C20        -48.2270    25.4340   -22.6360 c3         1 VDE       0.078600
      4 C24        -46.7860    28.6850   -22.2890 cc         1 VDE       0.200300
      5 C          -43.7060    24.8940   -19.9390 c          1 VDE       0.718000
      6 C18        -46.3200    24.0500   -21.5350 c3         1 VDE      -0.061400
      7 C19        -47.7270    24.6380   -21.4330 c3         1 VDE      -0.093400
      8 C25        -47.5640    27.6890   -21.7560 cd         1 VDE      -0.207000
      9 C70        -45.0430    29.7320   -20.8040 c3         1 VDE       0.084500
     10 C71        -46.3150    29.9370   -21.6390 c3         1 VDE      -0.081700
     11 C72        -43.8790    29.3510   -21.7220 c          1 VDE       0.565100
     12 N          -43.5250    23.2440   -21.7940 n8         1 VDE      -0.986200
     13 N21        -47.6200    26.7540   -22.7170 na         1 VDE       0.134800
     14 N22        -46.9380    27.1350   -23.7800 nd         1 VDE      -0.219800
     15 N23        -46.4310    28.2970   -23.5340 nc         1 VDE      -0.354000
     16 N2         -44.7710    30.9440   -20.0510 n8         1 VDE      -1.002200
     17 N3         -43.3370    28.1470   -21.5260 nt         1 VDE      -0.596000
     18 O          -43.4740    23.9400   -19.1810 o          1 VDE      -0.728000
     19 O2         -43.4800    30.1460   -22.5680 o          1 VDE      -0.670100
     20 HA         -43.1080    25.3230   -21.9330 h1         1 VDE      -0.002300
     21 H172       -45.4090    26.0260   -21.5740 hc         1 VDE       0.032700
     22 H171       -45.1970    25.1090   -23.0430 hc         1 VDE       0.032700
     23 H202       -49.3080    25.5600   -22.5770 h1         1 VDE       0.058200
     24 H201       -48.0020    24.9280   -23.5740 h1         1 VDE       0.058200
     25 H182       -46.3370    23.2060   -22.2290 hc         1 VDE       0.053700
     26 H181       -46.0810    23.6170   -20.5610 hc         1 VDE       0.053700
     27 H192       -47.8090    25.2590   -20.5380 hc         1 VDE       0.041700
     28 H191       -48.4350    23.8190   -21.2830 hc         1 VDE       0.041700
     29 H251       -48.0480    27.5880   -20.7990 h4         1 VDE       0.165000
     30 H701       -45.2280    28.9270   -20.0870 h1         1 VDE       0.088700
     31 H711       -46.1300    30.7050   -22.3930 hc         1 VDE       0.059200
     32 H712       -47.0890    30.3200   -20.9730 hc         1 VDE       0.059200
     33 H          -43.4000    23.1680   -22.7960 hn         1 VDE       0.375500
     34 H2         -42.6450    22.9710   -21.3760 hn         1 VDE       0.375500
     35 H21        -43.9820    30.7990   -19.4320 hn         1 VDE       0.400000
     36 H22        -44.4960    31.6820   -20.6890 hn         1 VDE       0.400000
     37 H32        -42.5650    27.8640   -22.1090 hn         1 VDE       0.340500
     38 H31        -43.6450    27.4720   -20.8170 hn         1 VDE       0.340500
     39 OXT        -43.8550    26.0950   -19.5890 o          1 VDE      -0.728000
@<TRIPOS>BOND
     1     1     2 1   
     2     1     5 1   
     3     1    12 1   
     4     1    20 1   
     5     2     6 1   
     6     2    21 1   
     7     2    22 1   
     8     3     7 1   
     9     3    13 1   
    10     3    23 1   
    11     3    24 1   
    12     4     8 2   
    13     4    10 1   
    14     4    15 1   
    15     5    18 1   
    16     5    39 1   
    17     6     7 1   
    18     6    25 1   
    19     6    26 1   
    20     7    27 1   
    21     7    28 1   
    22     8    13 1   
    23     8    29 1   
    24     9    10 1   
    25     9    11 1   
    26     9    16 1   
    27     9    30 1   
    28    10    31 1   
    29    10    32 1   
    30    11    17 1   
    31    11    19 2   
    32    12    33 1   
    33    12    34 1   
    34    13    14 1   
    35    14    15 2   
    36    16    35 1   
    37    16    36 1   
    38    17    37 1   
    39    17    38 1   
@<TRIPOS>SUBSTRUCTURE
     1 VDE         1 TEMP              0 ****  ****    0 ROOT
