@<TRIPOS>MOLECULE
VDE
   39    39     1     0     0
SMALL
No Charge or Current Charge


@<TRIPOS>ATOM
      1 CA         -43.8210    24.6480   -21.3590 c3         1 VDE       0.023500
      2 C17        -45.2560    25.0820   -21.7590 c3         1 VDE      -0.052400
      3 C20        -48.2870    25.4070   -22.6830 c3         1 VDE       0.078600
      4 C24        -46.8590    28.6920   -22.4040 cc         1 VDE       0.200300
      5 C          -43.5970    24.8370   -19.7950 c          1 VDE       0.718000
      6 C18        -46.3770    24.0520   -21.4550 c3         1 VDE      -0.061400
      7 C19        -47.8240    24.6180   -21.4270 c3         1 VDE      -0.093400
      8 C25        -47.5720    27.7030   -21.8070 cd         1 VDE      -0.207000
      9 C70        -45.0690    29.6760   -20.9040 c3         1 VDE       0.084500
     10 C71        -46.3330    29.9460   -21.7620 c3         1 VDE      -0.081700
     11 C72        -43.8390    29.2380   -21.7850 c          1 VDE       0.565100
     12 N          -43.4540    23.3250   -21.9850 n8         1 VDE      -0.986200
     13 N21        -47.7090    26.7600   -22.8000 na         1 VDE       0.134800
     14 N22        -47.1440    27.2130   -23.9670 nd         1 VDE      -0.219800
     15 N23        -46.6280    28.3920   -23.7160 nc         1 VDE      -0.354000
     16 N2         -44.8060    30.8610   -20.0150 n8         1 VDE      -1.002200
     17 N3         -43.1020    28.2010   -21.3300 nt         1 VDE      -0.596000
     18 O          -43.4890    23.8490   -19.0780 o          1 VDE      -0.728000
     19 O2         -43.4940    29.8110   -22.8080 o          1 VDE      -0.670100
     20 HA         -43.1400    25.3710   -21.8280 h1         1 VDE      -0.002300
     21 H172       -45.4780    26.0210   -21.2400 hc         1 VDE       0.032700
     22 H171       -45.2670    25.3090   -22.8320 hc         1 VDE       0.032700
     23 H202       -49.3770    25.5200   -22.6460 h1         1 VDE       0.058200
     24 H201       -48.0450    24.8310   -23.5860 h1         1 VDE       0.058200
     25 H182       -46.3260    23.2440   -22.1950 hc         1 VDE       0.053700
     26 H181       -46.1800    23.5880   -20.4800 hc         1 VDE       0.053700
     27 H192       -47.9520    25.2400   -20.5330 hc         1 VDE       0.041700
     28 H191       -48.5070    23.7690   -21.2960 hc         1 VDE       0.041700
     29 H251       -47.9280    27.5850   -20.7930 h4         1 VDE       0.165000
     30 H701       -45.2990    28.8230   -20.2480 h1         1 VDE       0.088700
     31 H711       -46.1140    30.7030   -22.5250 hc         1 VDE       0.059200
     32 H712       -47.1210    30.3670   -21.1260 hc         1 VDE       0.059200
     33 H          -43.4710    23.4140   -23.0070 hn         1 VDE       0.375500
     34 H2         -42.4740    23.1100   -21.7680 hn         1 VDE       0.375500
     35 H21        -43.9910    30.6680   -19.4180 hn         1 VDE       0.400000
     36 H22        -44.4890    31.6490   -20.5960 hn         1 VDE       0.400000
     37 H32        -42.2970    27.9060   -21.8590 hn         1 VDE       0.340500
     38 H31        -43.3700    27.6940   -20.4930 hn         1 VDE       0.340500
     39 OXT        -43.4560    25.9810   -19.3770 o          1 VDE      -0.728000
@<TRIPOS>BOND
     1     1     2 1   
     2     1     5 1   
     3     1    12 1   
     4     1    20 1   
     5     2     6 1   
     6     2    21 1   
     7     2    22 1   
     8     3     7 1   
     9     3    13 1   
    10     3    23 1   
    11     3    24 1   
    12     4     8 2   
    13     4    10 1   
    14     4    15 1   
    15     5    18 1   
    16     5    39 1   
    17     6     7 1   
    18     6    25 1   
    19     6    26 1   
    20     7    27 1   
    21     7    28 1   
    22     8    13 1   
    23     8    29 1   
    24     9    10 1   
    25     9    11 1   
    26     9    16 1   
    27     9    30 1   
    28    10    31 1   
    29    10    32 1   
    30    11    17 1   
    31    11    19 2   
    32    12    33 1   
    33    12    34 1   
    34    13    14 1   
    35    14    15 2   
    36    16    35 1   
    37    16    36 1   
    38    17    37 1   
    39    17    38 1   
@<TRIPOS>SUBSTRUCTURE
     1 VDE         1 TEMP              0 ****  ****    0 ROOT
