@<TRIPOS>MOLECULE
VDG
   59    60     1     0     0
SMALL
abcg2


@<TRIPOS>ATOM
      1 C20        114.2910   141.4850    93.9560 c5         1 VDG       0.093300
      2 C21        114.9630   141.3700    92.5920 c5         1 VDG       0.137300
      3 C22        116.4040   141.0540    92.9980 c5         1 VDG       0.340700
      4 C26        116.6330   138.8240    92.0410 c          1 VDG       0.611000
      5 C28        112.4230   142.7370    98.4580 c3         1 VDG       0.077500
      6 C19        115.3980   142.1240    94.8040 c5         1 VDG       0.133300
      7 C23        115.3310   141.7050    96.2740 c3         1 VDG      -0.059300
      8 C25        116.9350   139.0580    94.3950 cc         1 VDG       0.032600
      9 C29        112.9520   143.0100    99.8750 c3         1 VDG       0.161300
     10 C30        117.1390   137.7420    94.5970 cd         1 VDG      -0.304400
     11 C31        114.4480   143.3480    99.8970 c3         1 VDG       0.129300
     12 C32        117.0580   136.8430    93.4660 c          1 VDG       0.600200
     13 C33        117.5080   137.2100    95.9420 c3         1 VDG       0.235800
     14 C34        114.8860   143.7080   101.3130 c3         1 VDG       0.171600
     15 C35        117.1590   143.0300   101.3380 c          1 VDG       0.648100
     16 N14        116.6290   139.5980    93.1810 n          1 VDG      -0.336000
     17 N15        114.1440   142.3280    96.8160 ns         1 VDG      -0.497900
     18 N16        116.8210   137.4850    92.2600 ns         1 VDG      -0.471500
     19 N17        111.0940   142.1650    98.5490 n8         1 VDG      -0.982200
     20 N18        118.4150   143.5060   101.3480 nt         1 VDG      -0.597000
     21 O01        116.6220   141.7150    94.1980 os         1 VDG      -0.404000
     22 O02        113.1150   142.2300    93.8460 oh         1 VDG      -0.730000
     23 O03        115.0020   142.6060    91.9310 oh         1 VDG      -0.713000
     24 O06        116.4790   139.2910    90.9310 o          1 VDG      -0.580000
     25 O07        113.4010   140.5720    98.0440 o          1 VDG      -0.579100
     26 O08        112.1580   144.0530   100.4080 oh         1 VDG      -0.669000
     27 O09        114.7730   144.3850    99.0120 oh         1 VDG      -0.706000
     28 O10        117.1810   135.6340    93.5040 o          1 VDG      -0.549000
     29 O11        118.8790   136.8660    95.9340 oh         1 VDG      -0.657000
     30 O12        116.2720   144.0310   101.3710 os         1 VDG      -0.452100
     31 O13        116.8610   141.8520   101.3290 o          1 VDG      -0.545000
     32 H1         114.0860   140.4720    94.3350 h1         1 VDG       0.059700
     33 H2         114.5080   140.5900    91.9730 h1         1 VDG       0.072700
     34 H3         117.1200   141.4030    92.2510 h2         1 VDG       0.114700
     35 H4         112.4400   143.6920    97.9140 h1         1 VDG       0.046700
     36 H5         115.3360   143.2180    94.7410 h1         1 VDG       0.075700
     37 H6         115.1930   140.6240    96.3330 h1         1 VDG       0.076700
     38 H7         117.0310   139.7560    95.2180 h4         1 VDG       0.276000
     39 H8         112.8190   142.0870   100.4550 h1         1 VDG       0.058700
     40 H9         114.9700   142.4230    99.6220 h1         1 VDG       0.079700
     41 H10        117.2870   137.9740    96.6980 h1         1 VDG       0.038700
     42 H11        116.8810   136.3420    96.1770 h1         1 VDG       0.038700
     43 H12        114.3810   144.6140   101.6470 h1         1 VDG       0.049700
     44 H13        114.6410   142.9040   102.0120 h1         1 VDG       0.049700
     45 H14        114.1110   143.3360    96.7620 hn         1 VDG       0.312500
     46 H15        116.7930   136.9040    91.4310 hn         1 VDG       0.328500
     47 H16        110.5110   142.7930    99.0880 hn         1 VDG       0.393500
     48 H17        110.6750   142.1270    97.6270 hn         1 VDG       0.393500
     49 H19        119.1830   142.8670   101.2450 hn         1 VDG       0.322500
     50 H20        118.6080   144.4890   101.2570 hn         1 VDG       0.322500
     51 H21        112.7700   142.3950    94.7300 ho         1 VDG       0.528000
     52 H22        114.1410   143.0280    92.0290 ho         1 VDG       0.525000
     53 H24        111.9850   143.8730   101.3360 ho         1 VDG       0.435000
     54 H25        115.4820   144.0400    98.4210 ho         1 VDG       0.518000
     55 H26        119.0550   136.3340    96.7160 ho         1 VDG       0.435000
     56 C24        116.6220   142.0810    97.0430 c          1 VDG       0.730000
     57 C27        113.3610   141.7560    97.7590 c          1 VDG       0.590100
     58 O04        116.6690   143.2240    97.5610 o          1 VDG      -0.705000
     59 O05        117.5170   141.2270    97.0500 o          1 VDG      -0.705000
@<TRIPOS>BOND
     1     1     2 1   
     2     1     6 1   
     3     1    22 1   
     4     1    32 1   
     5     2     3 1   
     6     2    23 1   
     7     2    33 1   
     8     3    16 1   
     9     3    21 1   
    10     3    34 1   
    11     4    16 1   
    12     4    18 1   
    13     4    24 2   
    14     5     9 1   
    15     5    19 1   
    16     5    35 1   
    17     5    57 1   
    18     6     7 1   
    19     6    21 1   
    20     6    36 1   
    21     7    17 1   
    22     7    37 1   
    23     7    56 1   
    24     8    10 2   
    25     8    16 1   
    26     8    38 1   
    27     9    11 1   
    28     9    26 1   
    29     9    39 1   
    30    10    12 1   
    31    10    13 1   
    32    11    14 1   
    33    11    27 1   
    34    11    40 1   
    35    12    18 1   
    36    12    28 2   
    37    13    29 1   
    38    13    41 1   
    39    13    42 1   
    40    14    30 1   
    41    14    43 1   
    42    14    44 1   
    43    15    20 1   
    44    15    30 1   
    45    15    31 2   
    46    17    45 1   
    47    17    57 1   
    48    18    46 1   
    49    19    47 1   
    50    19    48 1   
    51    20    49 1   
    52    20    50 1   
    53    22    51 1   
    54    23    52 1   
    55    25    57 2   
    56    26    53 1   
    57    27    54 1   
    58    29    55 1   
    59    56    58 1   
    60    56    59 1   
@<TRIPOS>SUBSTRUCTURE
     1 VDG         1 TEMP              0 ****  ****    0 ROOT
