@<TRIPOS>MOLECULE
VDG
   59    60     1     0     0
SMALL
No Charge or Current Charge


@<TRIPOS>ATOM
      1 C20        114.1870   140.7520    94.5200 c5         1 VDG       0.093300
      2 C21        114.7990   140.6180    93.0890 c5         1 VDG       0.137300
      3 C22        116.3480   140.6310    93.3980 c5         1 VDG       0.340700
      4 C26        117.8190   139.2710    91.9340 c          1 VDG       0.611000
      5 C28        112.4910   143.0870    99.0830 c3         1 VDG       0.077500
      6 C19        115.3140   141.5530    95.2490 c5         1 VDG       0.133300
      7 C23        115.2420   141.5610    96.7960 c3         1 VDG      -0.059300
      8 C25        116.5420   138.1490    93.6900 cc         1 VDG       0.032600
      9 C29        113.1360   143.7960   100.3220 c3         1 VDG       0.161300
     10 C30        117.0280   136.9220    93.2840 cd         1 VDG      -0.304400
     11 C31        114.6480   144.1840   100.1260 c3         1 VDG       0.129300
     12 C32        117.9700   136.8380    92.1480 c          1 VDG       0.600200
     13 C33        116.6820   135.6030    93.9280 c3         1 VDG       0.235800
     14 C34        115.2220   144.9590   101.3530 c3         1 VDG       0.171600
     15 C35        117.4420   144.0130   101.4520 c          1 VDG       0.648100
     16 N14        116.9350   139.3160    93.0240 n          1 VDG      -0.336000
     17 N15        114.0310   142.2440    97.3280 ns         1 VDG      -0.497900
     18 N16        118.2700   138.0390    91.5870 ns         1 VDG      -0.471500
     19 N17        111.0670   142.6460    99.3560 n8         1 VDG      -0.982200
     20 N18        118.7260   144.3240   101.2320 nt         1 VDG      -0.597000
     21 O01        116.4950   140.8610    94.8150 os         1 VDG      -0.404000
     22 O02        112.9200   141.4380    94.4670 oh         1 VDG      -0.730000
     23 O03        114.3600   141.7550    92.3370 oh         1 VDG      -0.713000
     24 O06        118.1750   140.2580    91.3130 o          1 VDG      -0.580000
     25 O07        113.7210   140.9530    99.1830 o          1 VDG      -0.579100
     26 O08        112.3400   144.9470   100.6750 oh         1 VDG      -0.669000
     27 O09        114.8560   144.9420    98.9090 oh         1 VDG      -0.706000
     28 O10        118.4560   135.8030    91.7230 o          1 VDG      -0.549000
     29 O11        115.6950   135.7760    94.9490 oh         1 VDG      -0.657000
     30 O12        116.6570   145.1010   101.2280 os         1 VDG      -0.452100
     31 O13        117.0680   142.9120   101.8130 o          1 VDG      -0.545000
     32 H1         114.0680   139.7600    94.9800 h1         1 VDG       0.059700
     33 H2         114.4780   139.6850    92.6030 h1         1 VDG       0.072700
     34 H3         116.8450   141.4280    92.8310 h2         1 VDG       0.114700
     35 H4         112.4290   143.8300    98.2760 h1         1 VDG       0.046700
     36 H5         115.3610   142.5910    94.8890 h1         1 VDG       0.075700
     37 H6         115.2280   140.5170    97.1340 h1         1 VDG       0.076700
     38 H7         115.8680   138.3130    94.5270 h4         1 VDG       0.276000
     39 H8         113.1090   143.0760   101.1530 h1         1 VDG       0.058700
     40 H9         115.2030   143.2390   100.0620 h1         1 VDG       0.079700
     41 H10        116.3100   134.9140    93.1570 h1         1 VDG       0.038700
     42 H11        117.5950   135.1640    94.3540 h1         1 VDG       0.038700
     43 H12        114.7520   145.9490   101.3970 h1         1 VDG       0.049700
     44 H13        114.9630   144.4330   102.2820 h1         1 VDG       0.049700
     45 H14        113.7660   143.1270    96.9030 hn         1 VDG       0.312500
     46 H15        118.9070   138.0110    90.8070 hn         1 VDG       0.328500
     47 H16        110.4440   143.4620    99.3300 hn         1 VDG       0.393500
     48 H17        110.7290   142.0740    98.5710 hn         1 VDG       0.393500
     49 H19        119.4370   143.6200   101.3550 hn         1 VDG       0.322500
     50 H20        118.9630   145.2570   100.9350 hn         1 VDG       0.322500
     51 H21        112.5030   141.3460    95.3580 ho         1 VDG       0.528000
     52 H22        113.5620   142.0320    92.8630 ho         1 VDG       0.525000
     53 H24        111.4400   144.6040   100.8650 ho         1 VDG       0.435000
     54 H25        115.5590   144.4500    98.3850 ho         1 VDG       0.518000
     55 H26        115.5200   134.8840    95.3220 ho         1 VDG       0.435000
     56 C24        116.5170   142.2170    97.4020 c          1 VDG       0.730000
     57 C27        113.4610   141.9720    98.5560 c          1 VDG       0.590100
     58 O04        116.5300   143.4380    97.5210 o          1 VDG      -0.705000
     59 O05        117.3590   141.4880    97.9070 o          1 VDG      -0.705000
@<TRIPOS>BOND
     1     1     2 1   
     2     1     6 1   
     3     1    22 1   
     4     1    32 1   
     5     2     3 1   
     6     2    23 1   
     7     2    33 1   
     8     3    16 1   
     9     3    21 1   
    10     3    34 1   
    11     4    16 1   
    12     4    18 1   
    13     4    24 2   
    14     5     9 1   
    15     5    19 1   
    16     5    35 1   
    17     5    57 1   
    18     6     7 1   
    19     6    21 1   
    20     6    36 1   
    21     7    17 1   
    22     7    37 1   
    23     7    56 1   
    24     8    10 2   
    25     8    16 1   
    26     8    38 1   
    27     9    11 1   
    28     9    26 1   
    29     9    39 1   
    30    10    12 1   
    31    10    13 1   
    32    11    14 1   
    33    11    27 1   
    34    11    40 1   
    35    12    18 1   
    36    12    28 2   
    37    13    29 1   
    38    13    41 1   
    39    13    42 1   
    40    14    30 1   
    41    14    43 1   
    42    14    44 1   
    43    15    20 1   
    44    15    30 1   
    45    15    31 2   
    46    17    45 1   
    47    17    57 1   
    48    18    46 1   
    49    19    47 1   
    50    19    48 1   
    51    20    49 1   
    52    20    50 1   
    53    22    51 1   
    54    23    52 1   
    55    25    57 2   
    56    26    53 1   
    57    27    54 1   
    58    29    55 1   
    59    56    58 1   
    60    56    59 1   
@<TRIPOS>SUBSTRUCTURE
     1 VDG         1 TEMP              0 ****  ****    0 ROOT
