@<TRIPOS>MOLECULE
VDH
   51    54     1     0     0
SMALL
abcg2


@<TRIPOS>ATOM
      1 N1         -30.6790    14.3850     0.2430 n          1 VDH      -0.405800
      2 N3         -24.8360    13.0180     7.0900 nc         1 VDH      -0.677000
      3 C4         -28.2800    13.7780     0.4360 ca         1 VDH      -0.092300
      4 C5         -27.8120    13.4950     1.7090 ca         1 VDH      -0.134000
      5 C6         -26.8360    12.5280     1.9440 ca         1 VDH      -0.048000
      6 C7         -26.3040    11.8460     0.8510 ca         1 VDH      -0.098000
      7 C8         -26.7760    12.1240    -0.4220 ca         1 VDH      -0.139000
      8 C10        -25.3790    11.5480     5.2570 cd         1 VDH      -0.342600
      9 C13        -24.4990    11.8120     9.2240 cd         1 VDH      -0.397200
     10 C17        -27.7640    13.0770    -0.6610 ca         1 VDH       0.249000
     11 C20        -31.3300    14.0120    -0.8800 c          1 VDH       0.563000
     12 C1         -31.3170    12.7360     2.0150 c3         1 VDH      -0.115100
     13 C11        -25.1260    12.8110     5.8350 cd         1 VDH       0.436900
     14 C12        -24.7580    11.9420     7.8860 cc         1 VDH       0.484500
     15 C14        -25.3120    10.4350     6.0790 cc         1 VDH       0.094700
     16 C16        -24.5310    10.4220     9.5470 c          1 VDH       0.557200
     17 C18        -29.5260    13.0200    -2.3990 c3         1 VDH       0.194800
     18 C19        -30.5980    14.1020    -2.2030 c3         1 VDH      -0.163400
     19 C2         -31.3290    14.1790     1.5320 c3         1 VDH       0.104000
     20 C3         -29.3060    14.8610     0.2440 c3         1 VDH       0.154300
     21 C9         -25.6080    11.4070     3.7930 c          1 VDH       0.644700
     22 N2         -26.4520    12.3310     3.2780 ns         1 VDH      -0.137000
     23 N4         -24.9740    10.6770     7.3510 na         1 VDH      -0.075800
     24 N5         -24.9210     9.7700     8.3600 ns         1 VDH      -0.390200
     25 N6         -28.1750    13.3680    -1.9680 nu         1 VDH      -0.921200
     26 O1         -24.3060     9.8070    10.5780 o          1 VDH      -0.517000
     27 O2         -25.0590    10.5340     3.1430 o          1 VDH      -0.583100
     28 O3         -32.4750    13.5790    -0.8410 o          1 VDH      -0.567000
     29 H8         -28.2120    14.0580     2.5470 ha         1 VDH       0.109000
     30 H9         -25.5400    11.0970     0.9740 ha         1 VDH       0.148000
     31 H10        -26.3570    11.5780    -1.2600 ha         1 VDH       0.115000
     32 H13        -24.2820    12.6160     9.9070 ha         1 VDH       0.245000
     33 H15        -26.2840     8.5830     6.4410 hc         1 VDH       0.080033
     34 H16        -26.0670     8.9550     4.7310 hc         1 VDH       0.080033
     35 H14        -24.6920     8.4320     5.6990 hc         1 VDH       0.080033
     36 H1         -31.7940    12.6720     2.9940 hc         1 VDH       0.042700
     37 H2         -31.8630    12.0840     1.3360 hc         1 VDH       0.042700
     38 H3         -30.3010    12.3550     2.1130 hc         1 VDH       0.042700
     39 H12        -25.1540    13.6940     5.2040 h4         1 VDH       0.033100
     40 H20        -29.8660    12.0790    -1.9500 h1         1 VDH       0.043700
     41 H19        -29.4570    12.8360    -3.4710 h1         1 VDH       0.043700
     42 H22        -30.1620    15.0860    -2.3800 hc         1 VDH       0.074700
     43 H21        -31.3590    13.9550    -2.9690 hc         1 VDH       0.074700
     44 H5         -30.8180    14.8140     2.2550 h1         1 VDH       0.049200
     45 H4         -32.3560    14.5410     1.4710 h1         1 VDH       0.049200
     46 H7         -29.1010    15.3950    -0.6830 h1         1 VDH       0.062700
     47 H6         -29.2110    15.5970     1.0440 h1         1 VDH       0.062700
     48 H11        -26.9360    12.9200     3.9410 hn         1 VDH       0.155000
     49 H17        -24.5850     8.8410     8.1360 hn         1 VDH       0.332500
     50 H18        -27.5120    12.9900    -2.6290 hn         1 VDH       0.439000
     51 C15        -25.6080     9.0270     5.7090 c3         1 VDH      -0.082800
@<TRIPOS>BOND
     1     1    11 1   
     2     1    19 1   
     3     1    20 1   
     4     2    13 2   
     5     2    14 1   
     6     3     4 ar  
     7     3    10 ar  
     8     3    20 1   
     9     4     5 ar  
    10     4    29 1   
    11     5     6 ar  
    12     5    22 1   
    13     6     7 ar  
    14     6    30 1   
    15     7    10 ar  
    16     7    31 1   
    17     8    13 1   
    18     8    15 2   
    19     8    21 1   
    20     9    14 2   
    21     9    16 1   
    22     9    32 1   
    23    10    25 1   
    24    11    18 1   
    25    11    28 2   
    26    12    19 1   
    27    12    36 1   
    28    12    37 1   
    29    12    38 1   
    30    13    39 1   
    31    14    23 1   
    32    15    23 1   
    33    15    51 1   
    34    16    24 1   
    35    16    26 2   
    36    17    18 1   
    37    17    25 1   
    38    17    40 1   
    39    17    41 1   
    40    18    42 1   
    41    18    43 1   
    42    19    44 1   
    43    19    45 1   
    44    20    46 1   
    45    20    47 1   
    46    21    22 1   
    47    21    27 2   
    48    22    48 1   
    49    23    24 1   
    50    24    49 1   
    51    25    50 1   
    52    33    51 1   
    53    34    51 1   
    54    35    51 1   
@<TRIPOS>SUBSTRUCTURE
     1 VDH         1 TEMP              0 ****  ****    0 ROOT
