@<TRIPOS>MOLECULE
VDH
   51    54     1     0     0
SMALL
No Charge or Current Charge


@<TRIPOS>ATOM
      1 N1         -30.6220    14.6130     0.1160 n          1 VDH      -0.405800
      2 N3         -25.9600    12.7400     7.2880 nc         1 VDH      -0.677000
      3 C4         -28.2850    13.7010     0.3910 ca         1 VDH      -0.092300
      4 C5         -27.8330    13.4000     1.6940 ca         1 VDH      -0.134000
      5 C6         -26.9940    12.2990     1.9430 ca         1 VDH      -0.048000
      6 C7         -26.5770    11.5040     0.8560 ca         1 VDH      -0.098000
      7 C8         -27.0070    11.8080    -0.4460 ca         1 VDH      -0.139000
      8 C10        -25.6710    11.2180     5.3770 cd         1 VDH      -0.342600
      9 C13        -25.0440    11.7160     9.2670 cd         1 VDH      -0.397200
     10 C17        -27.8650    12.8930    -0.6900 ca         1 VDH       0.249000
     11 C20        -31.2180    14.0940    -1.0570 c          1 VDH       0.563000
     12 C1         -31.4120    13.5050     2.2550 c3         1 VDH      -0.115100
     13 C11        -26.1010    12.4560     6.0060 cd         1 VDH       0.436900
     14 C12        -25.3190    11.7450     7.9310 cc         1 VDH       0.484500
     15 C14        -25.0290    10.2100     6.1370 cc         1 VDH       0.094700
     16 C16        -24.3180    10.5070     9.6440 c          1 VDH       0.557200
     17 C18        -29.5620    12.9440    -2.5910 c3         1 VDH       0.194800
     18 C19        -30.4760    14.1610    -2.3950 c3         1 VDH      -0.163400
     19 C2         -31.4240    14.7560     1.3560 c3         1 VDH       0.104000
     20 C3         -29.1740    14.9260     0.1920 c3         1 VDH       0.154300
     21 C9         -25.9230    11.0170     3.9070 c          1 VDH       0.644700
     22 N2         -26.5950    12.0710     3.2910 ns         1 VDH      -0.137000
     23 N4         -24.7970    10.5580     7.4790 na         1 VDH      -0.075800
     24 N5         -24.2200     9.7840     8.4890 ns         1 VDH      -0.390200
     25 N6         -28.2210    13.1480    -2.0200 nu         1 VDH      -0.921200
     26 O1         -23.8550    10.2140    10.7320 o          1 VDH      -0.517000
     27 O2         -25.5790    10.0190     3.2900 o          1 VDH      -0.583100
     28 O3         -32.3370    13.5970    -1.0190 o          1 VDH      -0.567000
     29 H8         -28.1390    14.0330     2.5240 ha         1 VDH       0.109000
     30 H9         -25.9110    10.6580     0.9920 ha         1 VDH       0.148000
     31 H10        -26.6700    11.1900    -1.2740 ha         1 VDH       0.115000
     32 H13        -25.2750    12.4810     9.9920 ha         1 VDH       0.245000
     33 H15        -24.1570     8.2250     6.4520 hc         1 VDH       0.080033
     34 H16        -25.3910     8.2890     5.2070 hc         1 VDH       0.080033
     35 H14        -23.7730     8.9570     4.8970 hc         1 VDH       0.080033
     36 H1         -32.0570    13.6600     3.1270 hc         1 VDH       0.042700
     37 H2         -31.7830    12.6320     1.7050 hc         1 VDH       0.042700
     38 H3         -30.4030    13.2840     2.6150 hc         1 VDH       0.042700
     39 H12        -26.5970    13.2550     5.4700 h4         1 VDH       0.033100
     40 H20        -30.0310    12.0360    -2.1840 h1         1 VDH       0.043700
     41 H19        -29.4500    12.7910    -3.6740 h1         1 VDH       0.043700
     42 H22        -29.8660    15.0650    -2.4760 hc         1 VDH       0.074700
     43 H21        -31.2200    14.1530    -3.1990 hc         1 VDH       0.074700
     44 H5         -31.0420    15.6090     1.9330 h1         1 VDH       0.049200
     45 H4         -32.4620    14.9960     1.0910 h1         1 VDH       0.049200
     46 H7         -28.8480    15.4770    -0.6970 h1         1 VDH       0.062700
     47 H6         -29.0090    15.6150     1.0300 h1         1 VDH       0.062700
     48 H11        -26.8520    12.8230     3.9130 hn         1 VDH       0.155000
     49 H17        -23.3950     9.2160     8.3310 hn         1 VDH       0.332500
     50 H18        -27.4720    12.9100    -2.6720 hn         1 VDH       0.439000
     51 C15        -24.5610     8.8520     5.6510 c3         1 VDH      -0.082800
@<TRIPOS>BOND
     1     1    11 1   
     2     1    19 1   
     3     1    20 1   
     4     2    13 2   
     5     2    14 1   
     6     3     4 ar  
     7     3    10 ar  
     8     3    20 1   
     9     4     5 ar  
    10     4    29 1   
    11     5     6 ar  
    12     5    22 1   
    13     6     7 ar  
    14     6    30 1   
    15     7    10 ar  
    16     7    31 1   
    17     8    13 1   
    18     8    15 2   
    19     8    21 1   
    20     9    14 2   
    21     9    16 1   
    22     9    32 1   
    23    10    25 1   
    24    11    18 1   
    25    11    28 2   
    26    12    19 1   
    27    12    36 1   
    28    12    37 1   
    29    12    38 1   
    30    13    39 1   
    31    14    23 1   
    32    15    23 1   
    33    15    51 1   
    34    16    24 1   
    35    16    26 2   
    36    17    18 1   
    37    17    25 1   
    38    17    40 1   
    39    17    41 1   
    40    18    42 1   
    41    18    43 1   
    42    19    44 1   
    43    19    45 1   
    44    20    46 1   
    45    20    47 1   
    46    21    22 1   
    47    21    27 2   
    48    22    48 1   
    49    23    24 1   
    50    24    49 1   
    51    25    50 1   
    52    33    51 1   
    53    34    51 1   
    54    35    51 1   
@<TRIPOS>SUBSTRUCTURE
     1 VDH         1 TEMP              0 ****  ****    0 ROOT
