@<TRIPOS>MOLECULE
VDI
   24    25     1     0     0
SMALL
No Charge or Current Charge


@<TRIPOS>ATOM
      1 C7          38.1000    25.3510    20.6330 cy         1 VDI      -0.065400
      2 C8          38.1220    24.2850    21.7850 cy         1 VDI      -0.112400
      3 C9          37.9940    23.2110    20.6470 cy         1 VDI      -0.065400
      4 C1          33.5490    25.7170    19.9970 ca         1 VDI      -0.114000
      5 C5          35.6050    24.3980    19.9610 ca         1 VDI       0.008700
      6 C6          37.1300    24.3220    19.9200 cy         1 VDI      -0.150700
      7 C4          34.8330    23.2180    19.9790 ca         1 VDI      -0.100000
      8 C3          33.4290    23.2880    20.0140 ca         1 VDI      -0.114000
      9 C2          32.7890    24.5380    20.0250 ca         1 VDI       0.099000
     10 Cl          31.0330    24.6250    20.0670 cl         1 VDI      -0.272000
     11 C           34.9530    25.6470    19.9620 ca         1 VDI      -0.100000
     12 C10         37.8280    24.2770    18.4790 c          1 VDI       0.728000
     13 O           37.9950    23.2260    17.8720 o          1 VDI      -0.717000
     14 H1          39.0920    25.5190    20.1920 hc         1 VDI       0.044700
     15 H2          37.6740    26.3230    20.9000 hc         1 VDI       0.044700
     16 H3          39.0410    24.2440    22.3800 hc         1 VDI       0.024700
     17 H4          37.2660    24.3320    22.4690 hc         1 VDI       0.024700
     18 H5          37.4740    22.2900    20.9280 hc         1 VDI       0.044700
     19 H6          38.9640    22.9400    20.2090 hc         1 VDI       0.044700
     20 H7          33.0520    26.6840    20.0000 ha         1 VDI       0.108500
     21 H8          35.3180    22.2460    19.9620 ha         1 VDI       0.123500
     22 H9          32.8390    22.3750    20.0300 ha         1 VDI       0.108500
     23 H10         35.5320    26.5670    19.9320 ha         1 VDI       0.123500
     24 O1          38.0990    25.2980    17.8580 o          1 VDI      -0.717000
@<TRIPOS>BOND
     1     1     2 1   
     2     1     6 1   
     3     1    14 1   
     4     1    15 1   
     5     2     3 1   
     6     2    16 1   
     7     2    17 1   
     8     3     6 1   
     9     3    18 1   
    10     3    19 1   
    11     4     9 ar  
    12     4    11 ar  
    13     4    20 1   
    14     5     6 1   
    15     5     7 ar  
    16     5    11 ar  
    17     6    12 1   
    18     7     8 ar  
    19     7    21 1   
    20     8     9 ar  
    21     8    22 1   
    22     9    10 1   
    23    11    23 1   
    24    12    13 1   
    25    12    24 1   
@<TRIPOS>SUBSTRUCTURE
     1 VDI         1 TEMP              0 ****  ****    0 ROOT
