@<TRIPOS>MOLECULE
VDI
   24    25     1     0     0
SMALL
abcg2


@<TRIPOS>ATOM
      1 C7          37.9900    25.3740    20.7290 cy         1 VDI      -0.065400
      2 C8          38.2060    24.2970    21.8140 cy         1 VDI      -0.112400
      3 C9          37.8760    23.2150    20.7630 cy         1 VDI      -0.065400
      4 C1          33.6770    25.7000    19.9770 ca         1 VDI      -0.114000
      5 C5          35.7300    24.3940    19.9530 ca         1 VDI       0.008700
      6 C6          37.2390    24.3170    19.8670 cy         1 VDI      -0.150700
      7 C4          34.9510    23.2340    19.9390 ca         1 VDI      -0.100000
      8 C3          33.5620    23.2880    19.9470 ca         1 VDI      -0.114000
      9 C2          32.9380    24.5270    19.9690 ca         1 VDI       0.099000
     10 CL          31.1840    24.6090    19.9890 cl         1 VDI      -0.272000
     11 C           35.0650    25.6230    19.9660 ca         1 VDI      -0.100000
     12 C10         37.6040    24.2650    18.3570 c          1 VDI       0.728000
     13 O           37.6410    23.1270    17.8280 o          1 VDI      -0.717000
     14 H1          38.9220    25.6660    20.2450 hc         1 VDI       0.044700
     15 H2          37.4510    26.2760    21.0170 hc         1 VDI       0.044700
     16 H3          39.1880    24.2530    22.2870 hc         1 VDI       0.024700
     17 H4          37.4430    24.3490    22.5930 hc         1 VDI       0.024700
     18 H5          37.2430    22.3860    21.0760 hc         1 VDI       0.044700
     19 H6          38.7720    22.8100    20.2920 hc         1 VDI       0.044700
     20 H7          33.1790    26.6600    19.9920 ha         1 VDI       0.108500
     21 H8          35.4310    22.2650    19.9130 ha         1 VDI       0.123500
     22 H9          32.9760    22.3800    19.9380 ha         1 VDI       0.108500
     23 H10         35.6330    26.5430    19.9630 ha         1 VDI       0.123500
     24 O1          37.8100    25.3630    17.7860 o          1 VDI      -0.717000
@<TRIPOS>BOND
     1     1     2 1   
     2     1     6 1   
     3     1    14 1   
     4     1    15 1   
     5     2     3 1   
     6     2    16 1   
     7     2    17 1   
     8     3     6 1   
     9     3    18 1   
    10     3    19 1   
    11     4     9 ar  
    12     4    11 ar  
    13     4    20 1   
    14     5     6 1   
    15     5     7 ar  
    16     5    11 ar  
    17     6    12 1   
    18     7     8 ar  
    19     7    21 1   
    20     8     9 ar  
    21     8    22 1   
    22     9    10 1   
    23    11    23 1   
    24    12    13 1   
    25    12    24 1   
@<TRIPOS>SUBSTRUCTURE
     1 VDI         1 TEMP              0 ****  ****    0 ROOT
