@<TRIPOS>MOLECULE
VDK
   23    23     1     0     0
SMALL
bcc


@<TRIPOS>ATOM
      1 C2          17.7720   -32.6410    -0.3190 c6         1 VDK       0.142500
      2 C4          16.9520   -31.7850     0.6320 c6         1 VDK      -0.094400
      3 C5          15.5120   -32.2890     0.6740 c6         1 VDK      -0.063400
      4 C6          14.9030   -32.3420    -0.7220 c6         1 VDK      -0.057400
      5 C7          15.7380   -33.2030    -1.6690 c6         1 VDK      -0.204700
      6 N1          19.1720   -32.1120    -0.3910 nz         1 VDK      -0.838600
      7 C9          17.1730   -32.6770    -1.7140 c6         1 VDK      -0.064400
      8 C10         15.6500   -34.7210    -1.3470 c          1 VDK       0.924600
      9 O11         16.6770   -35.4030    -1.5420 o          1 VDK      -0.816800
     10 H1          17.8690   -33.6540     0.0720 hx         1 VDK       0.137700
     11 H2          17.3930   -31.7990     1.6320 hc         1 VDK       0.035700
     12 H3          16.9690   -30.7460     0.2850 hc         1 VDK       0.035700
     13 H4          14.9240   -31.6380     1.3240 hc         1 VDK       0.062700
     14 H5          15.4880   -33.2830     1.1280 hc         1 VDK       0.062700
     15 H6          14.8400   -31.3230    -1.1200 hc         1 VDK       0.047700
     16 H7          13.8830   -32.7220    -0.6740 hc         1 VDK       0.047700
     17 H8          15.3260   -33.0890    -2.6800 hc         1 VDK       0.065700
     18 H9          19.6130   -32.0670     0.5290 hn         1 VDK       0.437133
     19 H10         19.7650   -32.6980    -0.9800 hn         1 VDK       0.437133
     20 H12         17.7850   -33.2940    -2.3730 hc         1 VDK       0.041700
     21 H13         17.1750   -31.6600    -2.1220 hc         1 VDK       0.041700
     22 OXY         14.5440   -35.1420    -0.9570 o          1 VDK      -0.816800
     23 H11         19.1980   -31.1690    -0.7820 hn         1 VDK       0.437133
@<TRIPOS>BOND
     1     1     2 1   
     2     1     6 1   
     3     1     7 1   
     4     1    10 1   
     5     2     3 1   
     6     2    11 1   
     7     2    12 1   
     8     3     4 1   
     9     3    13 1   
    10     3    14 1   
    11     4     5 1   
    12     4    15 1   
    13     4    16 1   
    14     5     7 1   
    15     5     8 1   
    16     5    17 1   
    17     6    18 1   
    18     6    19 1   
    19     6    23 1   
    20     7    20 1   
    21     7    21 1   
    22     8     9 1   
    23     8    22 1   
@<TRIPOS>SUBSTRUCTURE
     1 VDK         1 TEMP              0 ****  ****    0 ROOT
