@<TRIPOS>MOLECULE
VDK
   23    23     1     0     0
SMALL
No Charge or Current Charge


@<TRIPOS>ATOM
      1 C2          17.8210   -32.6660    -0.3650 c6         1 VDK       0.114300
      2 C4          17.0490   -31.7720     0.6300 c6         1 VDK      -0.094400
      3 C5          15.5950   -32.2730     0.8060 c6         1 VDK      -0.063400
      4 C6          14.8590   -32.3660    -0.5580 c6         1 VDK      -0.057400
      5 C7          15.6430   -33.1980    -1.6190 c6         1 VDK      -0.204700
      6 N1          19.2340   -32.0980    -0.5430 nz         1 VDK      -0.976000
      7 C9          17.1110   -32.6940    -1.7390 c6         1 VDK      -0.064400
      8 C10         15.5360   -34.7310    -1.4090 c          1 VDK       0.714000
      9 O11         16.0570   -35.2320    -0.4240 o          1 VDK      -0.711500
     10 H1          17.9210   -33.6860     0.0350 hx         1 VDK       0.137700
     11 H2          17.5580   -31.7670     1.6030 hc         1 VDK       0.035700
     12 H3          17.0390   -30.7320     0.2730 hc         1 VDK       0.035700
     13 H4          15.0480   -31.5960     1.4750 hc         1 VDK       0.062700
     14 H5          15.5960   -33.2530     1.3020 hc         1 VDK       0.062700
     15 H6          14.7040   -31.3480    -0.9440 hc         1 VDK       0.047700
     16 H7          13.8560   -32.7910    -0.4140 hc         1 VDK       0.047700
     17 H8          15.1550   -33.0030    -2.5830 hc         1 VDK       0.065700
     18 H9          19.7610   -32.0610     0.3430 hn         1 VDK       0.492333
     19 H10         19.8080   -32.6570    -1.1920 hn         1 VDK       0.492333
     20 H12         17.6680   -33.3330    -2.4380 hc         1 VDK       0.041700
     21 H13         17.1140   -31.6840    -2.1740 hc         1 VDK       0.041700
     22 OXY         14.9580   -35.3790    -2.2680 o          1 VDK      -0.711500
     23 H11         19.2310   -31.1380    -0.9150 hn         1 VDK       0.492333
@<TRIPOS>BOND
     1     1     2 1   
     2     1     6 1   
     3     1     7 1   
     4     1    10 1   
     5     2     3 1   
     6     2    11 1   
     7     2    12 1   
     8     3     4 1   
     9     3    13 1   
    10     3    14 1   
    11     4     5 1   
    12     4    15 1   
    13     4    16 1   
    14     5     7 1   
    15     5     8 1   
    16     5    17 1   
    17     6    18 1   
    18     6    19 1   
    19     6    23 1   
    20     7    20 1   
    21     7    21 1   
    22     8     9 1   
    23     8    22 1   
@<TRIPOS>SUBSTRUCTURE
     1 VDK         1 TEMP              0 ****  ****    0 ROOT
