@<TRIPOS>MOLECULE
VDL
   17    16     1     0     0
SMALL
No Charge or Current Charge


@<TRIPOS>ATOM
      1 N           35.5540    31.1740    34.3150 n8         1 VDL      -0.952200
      2 CA          35.9560    30.1550    35.3610 c3         1 VDL       0.024500
      3 CB          34.7570    29.7580    36.2930 c3         1 VDL       0.184500
      4 CG1         35.0760    28.5570    37.2090 c3         1 VDL      -0.117100
      5 C           37.2720    30.4740    36.1870 c          1 VDL       0.714000
      6 OXT         37.2710    31.4240    36.9630 o          1 VDL      -0.727500
      7 O           38.2770    29.8150    35.9480 o          1 VDL      -0.727500
      8 NG2         34.2950    30.8890    37.1150 n8         1 VDL      -0.989200
      9 HN1         36.2790    31.2190    33.5900 hn         1 VDL       0.359500
     10 HN2         34.7200    30.8390    33.8210 hn         1 VDL       0.359500
     11 HA          36.1830    29.2510    34.7800 h1         1 VDL      -0.002300
     12 HB          33.9110    29.4570    35.6600 h1         1 VDL       0.007700
     13 HG11        34.1880    28.2560    37.7780 hc         1 VDL       0.026367
     14 HG12        35.3970    27.6960    36.6100 hc         1 VDL       0.026367
     15 HG13        35.8760    28.7950    37.9210 hc         1 VDL       0.026367
     16 HG21        34.1390    30.5520    38.0700 hn         1 VDL       0.393500
     17 HG22        35.1040    31.5170    37.2130 hn         1 VDL       0.393500
@<TRIPOS>BOND
     1     1     2 1   
     2     1     9 1   
     3     1    10 1   
     4     2     3 1   
     5     2     5 1   
     6     2    11 1   
     7     3     4 1   
     8     3     8 1   
     9     3    12 1   
    10     4    13 1   
    11     4    14 1   
    12     4    15 1   
    13     5     6 1   
    14     5     7 1   
    15     8    16 1   
    16     8    17 1   
@<TRIPOS>SUBSTRUCTURE
     1 VDL         1 TEMP              0 ****  ****    0 ROOT
