@<TRIPOS>MOLECULE
VDL
   17    16     1     0     0
SMALL
bcc


@<TRIPOS>ATOM
      1 N           35.5460    31.1830    34.4390 n8         1 VDL      -0.841800
      2 CA          35.9500    30.1040    35.3320 c3         1 VDL       0.024500
      3 CB          34.8010    29.7630    36.2990 c3         1 VDL       0.184500
      4 CG1         35.1590    28.5720    37.1870 c3         1 VDL      -0.117100
      5 C           37.2490    30.4640    36.0980 c          1 VDL       0.924600
      6 OXT         37.3120    31.5960    36.6250 o          1 VDL      -0.832800
      7 O           38.1240    29.5770    36.1450 o          1 VDL      -0.832800
      8 NG2         34.3600    30.9350    37.0490 n8         1 VDL      -0.878800
      9 HN1         36.2490    31.3020    33.7200 hn         1 VDL       0.304300
     10 HN2         34.7040    30.9050    33.9490 hn         1 VDL       0.304300
     11 HA          36.1530    29.1720    34.7840 h1         1 VDL      -0.002300
     12 HB          33.9580    29.4450    35.6690 h1         1 VDL       0.007700
     13 HG11        34.2910    28.2640    37.7730 hc         1 VDL       0.026367
     14 HG12        35.4800    27.7100    36.6000 hc         1 VDL       0.026367
     15 HG13        35.9590    28.8150    37.8890 hc         1 VDL       0.026367
     16 HG21        33.7870    30.6330    37.8270 hn         1 VDL       0.338300
     17 HG22        35.1740    31.3880    37.4470 hn         1 VDL       0.338300
@<TRIPOS>BOND
     1     1     2 1   
     2     1     9 1   
     3     1    10 1   
     4     2     3 1   
     5     2     5 1   
     6     2    11 1   
     7     3     4 1   
     8     3     8 1   
     9     3    12 1   
    10     4    13 1   
    11     4    14 1   
    12     4    15 1   
    13     5     6 1   
    14     5     7 1   
    15     8    16 1   
    16     8    17 1   
@<TRIPOS>SUBSTRUCTURE
     1 VDL         1 TEMP              0 ****  ****    0 ROOT
