@<TRIPOS>MOLECULE
VDM
   48    49     1     0     0
SMALL
No Charge or Current Charge


@<TRIPOS>ATOM
      1 O7           7.3070     1.8530    -2.5970 oh         1 VDM      -0.653000
      2 C7           6.2870     1.3410    -1.7380 c3         1 VDM       0.204800
      3 C5           5.0520     0.9390    -2.5420 c2         1 VDM      -0.173400
      4 C6           3.8210     0.9540    -1.9870 c2         1 VDM      -0.200200
      5 C4           5.2540     0.5700    -4.0230 c6         1 VDM       0.169500
      6 O4           6.4570    -0.2000    -4.2030 oh         1 VDM      -0.723000
      7 C3           4.0370    -0.2080    -4.6070 c6         1 VDM       0.104300
      8 O3           4.1780    -0.3760    -6.0350 oh         1 VDM      -0.669000
      9 C2           2.7250     0.5470    -4.2700 c6         1 VDM       0.188300
     10 O2           1.6260    -0.1140    -4.9310 oh         1 VDM      -0.727000
     11 C1           2.5280     0.6020    -2.7170 c6         1 VDM       0.216700
     12 N1           2.0190    -0.6920    -2.2090 n7         1 VDM      -0.862400
     13 C14          1.3000    -0.6350    -0.9010 c6         1 VDM       0.194500
     14 C13          1.2620    -2.0220    -0.1600 c6         1 VDM       0.149300
     15 O8           2.5740    -2.5640     0.0890 oh         1 VDM      -0.696000
     16 C10         -0.1590    -0.1260    -1.0980 c6         1 VDM      -0.114400
     17 C9          -1.0560    -1.1450    -1.8700 c6         1 VDM      -0.141700
     18 C8          -2.4980    -0.5820    -2.0500 c3         1 VDM       0.151600
     19 O1          -3.3140    -1.4600    -2.8410 oh         1 VDM      -0.663000
     20 C11         -1.0380    -2.5260    -1.1500 c6         1 VDM       0.157300
     21 O5          -1.8100    -3.4590    -1.9070 oh         1 VDM      -0.713000
     22 C12          0.4170    -3.0530    -0.9640 c6         1 VDM       0.122300
     23 O6           0.3980    -4.3270    -0.2890 oh         1 VDM      -0.641000
     24 H7           7.3070     1.2170    -3.3560 ho         1 VDM       0.454000
     25 H7C1         6.6590     0.4630    -1.1930 h1         1 VDM       0.046200
     26 H7C2         6.0120     2.0970    -0.9890 h1         1 VDM       0.046200
     27 H6           3.6980     1.2420    -0.9430 ha         1 VDM       0.175000
     28 H4           5.3330     1.5160    -4.5830 h1         1 VDM       0.096700
     29 H1           1.7870     1.3890    -2.5170 h1         1 VDM       0.036700
     30 HA           6.3200    -1.0560    -3.7310 ho         1 VDM       0.506000
     31 H3           3.9950    -1.1930    -4.1170 h1         1 VDM       0.073700
     32 HB           5.1350    -0.5490    -6.1900 ho         1 VDM       0.460000
     33 H2           2.8200     1.5790    -4.6400 h1         1 VDM       0.045700
     34 HC           2.0340    -0.4420    -5.7690 ho         1 VDM       0.531000
     35 H10          1.3610    -1.0250    -2.9230 hn         1 VDM       0.440000
     36 HD           1.8240     0.0660    -0.2340 h1         1 VDM       0.073700
     37 H12          0.7600    -1.8640     0.8060 h1         1 VDM       0.021700
     38 H6'1        -0.1620     0.8430    -1.6140 hc         1 VDM       0.049200
     39 H6'2        -0.6000     0.0680    -0.1100 hc         1 VDM       0.049200
     40 HE           2.4170    -3.5350     0.1700 ho         1 VDM       0.513000
     41 H11          0.8660    -3.1660    -1.9640 h1         1 VDM       0.099700
     42 H5          -0.6510    -1.2670    -2.8850 hc         1 VDM       0.064700
     43 H7'1        -2.4270     0.4030    -2.5330 h1         1 VDM       0.049700
     44 H7'2        -2.9470    -0.4310    -1.0580 h1         1 VDM       0.049700
     45 H9          -1.4910    -2.3980    -0.1550 h1         1 VDM       0.024700
     46 H8          -4.1430    -0.9690    -3.0510 ho         1 VDM       0.449000
     47 HF          -2.4800    -2.8760    -2.3660 ho         1 VDM       0.526000
     48 HG          -0.4050    -4.7800    -0.6370 ho         1 VDM       0.437000
@<TRIPOS>BOND
     1     1     2 1   
     2     1    24 1   
     3     2     3 1   
     4     2    25 1   
     5     2    26 1   
     6     3     4 2   
     7     3     5 1   
     8     4    11 1   
     9     4    27 1   
    10     5     6 1   
    11     5     7 1   
    12     5    28 1   
    13     6    30 1   
    14     7     8 1   
    15     7     9 1   
    16     7    31 1   
    17     8    32 1   
    18     9    10 1   
    19     9    11 1   
    20     9    33 1   
    21    10    34 1   
    22    11    12 1   
    23    11    29 1   
    24    12    13 1   
    25    12    35 1   
    26    13    14 1   
    27    13    16 1   
    28    13    36 1   
    29    14    15 1   
    30    14    22 1   
    31    14    37 1   
    32    15    40 1   
    33    16    17 1   
    34    16    38 1   
    35    16    39 1   
    36    17    18 1   
    37    17    20 1   
    38    17    42 1   
    39    18    19 1   
    40    18    43 1   
    41    18    44 1   
    42    19    46 1   
    43    20    21 1   
    44    20    22 1   
    45    20    45 1   
    46    21    47 1   
    47    22    23 1   
    48    22    41 1   
    49    23    48 1   
@<TRIPOS>SUBSTRUCTURE
     1 VDM         1 TEMP              0 ****  ****    0 ROOT
