@<TRIPOS>MOLECULE
VDM
   48    49     1     0     0
SMALL
abcg2


@<TRIPOS>ATOM
      1 O7           6.1910     2.9270    -2.3310 oh         1 VDM      -0.653000
      2 C7           5.3890     1.9760    -1.6650 c3         1 VDM       0.204800
      3 C5           4.5210     1.1710    -2.5970 c2         1 VDM      -0.173400
      4 C6           3.2160     1.0280    -2.3780 c2         1 VDM      -0.200200
      5 C4           5.2030     0.5610    -3.7970 c6         1 VDM       0.169500
      6 O4           6.5030     0.0900    -3.4930 oh         1 VDM      -0.723000
      7 C3           4.3450    -0.5180    -4.4490 c6         1 VDM       0.104300
      8 O3           4.8250    -0.8590    -5.7310 oh         1 VDM      -0.669000
      9 C2           2.9240     0.0070    -4.6090 c6         1 VDM       0.188300
     10 O2           2.1130    -0.8630    -5.3580 oh         1 VDM      -0.727000
     11 C1           2.2950     0.2020    -3.2310 c6         1 VDM       0.216700
     12 N1           2.0420    -1.1010    -2.6280 n7         1 VDM      -0.862400
     13 C14          1.5940    -1.0970    -1.2480 c6         1 VDM       0.194500
     14 C13          1.3600    -2.5220    -0.7490 c6         1 VDM       0.149300
     15 O8           2.5160    -3.2920    -0.9570 oh         1 VDM      -0.696000
     16 C10          0.3210    -0.2910    -0.9690 c6         1 VDM      -0.114400
     17 C9          -0.9120    -0.8840    -1.6450 c6         1 VDM      -0.141700
     18 C8          -2.1200    -0.0040    -1.3300 c3         1 VDM       0.151600
     19 O1          -3.3260    -0.4310    -1.9440 oh         1 VDM      -0.663000
     20 C11         -1.1220    -2.3330    -1.1930 c6         1 VDM       0.157300
     21 O5          -2.1800    -2.9730    -1.8680 oh         1 VDM      -0.713000
     22 C12          0.1370    -3.1690    -1.4060 c6         1 VDM       0.122300
     23 O6          -0.0230    -4.4940    -0.9380 oh         1 VDM      -0.641000
     24 H7           6.9280     2.4600    -2.7390 ho         1 VDM       0.454000
     25 H7C1         6.0020     1.2960    -1.0600 h1         1 VDM       0.046200
     26 H7C2         4.7530     2.5210    -0.9660 h1         1 VDM       0.046200
     27 H6           2.7740     1.5430    -1.5290 ha         1 VDM       0.175000
     28 H4           5.3570     1.3530    -4.5390 h1         1 VDM       0.096700
     29 H1           1.3660     0.7800    -3.3670 h1         1 VDM       0.036700
     30 HA           6.4310    -0.6040    -2.8290 ho         1 VDM       0.506000
     31 H3           4.3160    -1.3990    -3.7930 h1         1 VDM       0.073700
     32 HB           5.6190    -1.3930    -5.6310 ho         1 VDM       0.460000
     33 H2           2.9740     0.9960    -5.0950 h1         1 VDM       0.045700
     34 HC           2.6200    -1.1590    -6.1220 ho         1 VDM       0.531000
     35 H10          1.3940    -1.6020    -3.2220 hn         1 VDM       0.440000
     36 HD           2.4010    -0.6710    -0.6420 h1         1 VDM       0.073700
     37 H12          1.1440    -2.4380     0.3300 h1         1 VDM       0.021700
     38 H6'1         0.4520     0.7460    -1.2890 hc         1 VDM       0.049200
     39 H6'2         0.1630    -0.2490     0.1140 hc         1 VDM       0.049200
     40 HE           2.3140    -4.1940    -0.6830 ho         1 VDM       0.513000
     41 H11          0.3110    -3.2720    -2.4840 h1         1 VDM       0.099700
     42 H5          -0.7590    -0.8750    -2.7340 hc         1 VDM       0.064700
     43 H7'1        -1.8930     1.0330    -1.6040 h1         1 VDM       0.049700
     44 H7'2        -2.3050    -0.0170    -0.2530 h1         1 VDM       0.049700
     45 H9          -1.3210    -2.3020    -0.1050 h1         1 VDM       0.024700
     46 H8          -3.2680    -0.2410    -2.8870 ho         1 VDM       0.449000
     47 HF          -2.9030    -2.3320    -1.9260 ho         1 VDM       0.526000
     48 HG          -0.2920    -4.4620    -0.0130 ho         1 VDM       0.437000
@<TRIPOS>BOND
     1     1     2 1   
     2     1    24 1   
     3     2     3 1   
     4     2    25 1   
     5     2    26 1   
     6     3     4 2   
     7     3     5 1   
     8     4    11 1   
     9     4    27 1   
    10     5     6 1   
    11     5     7 1   
    12     5    28 1   
    13     6    30 1   
    14     7     8 1   
    15     7     9 1   
    16     7    31 1   
    17     8    32 1   
    18     9    10 1   
    19     9    11 1   
    20     9    33 1   
    21    10    34 1   
    22    11    12 1   
    23    11    29 1   
    24    12    13 1   
    25    12    35 1   
    26    13    14 1   
    27    13    16 1   
    28    13    36 1   
    29    14    15 1   
    30    14    22 1   
    31    14    37 1   
    32    15    40 1   
    33    16    17 1   
    34    16    38 1   
    35    16    39 1   
    36    17    18 1   
    37    17    20 1   
    38    17    42 1   
    39    18    19 1   
    40    18    43 1   
    41    18    44 1   
    42    19    46 1   
    43    20    21 1   
    44    20    22 1   
    45    20    45 1   
    46    21    47 1   
    47    22    23 1   
    48    22    41 1   
    49    23    48 1   
@<TRIPOS>SUBSTRUCTURE
     1 VDM         1 TEMP              0 ****  ****    0 ROOT
