@<TRIPOS>MOLECULE
VDN
   66    69     1     0     0
SMALL
abcg2


@<TRIPOS>ATOM
      1 C1          -4.9710    -0.4680     2.4130 c3         1 VDN      -0.098100
      2 C2          -4.3650     0.1300     1.1680 c3         1 VDN       0.164600
      3 O3          -2.9470    -0.0370     1.2500 os         1 VDN      -0.324100
      4 C4          -2.1730     0.4150     0.2730 ca         1 VDN       0.252100
      5 C5          -2.6420     1.0520    -0.8770 ca         1 VDN      -0.236000
      6 C6          -1.7510     1.5180    -1.8270 ca         1 VDN       0.050000
      7 C7          -0.3840     1.3530    -1.6460 ca         1 VDN      -0.362500
      8 C8           0.0990     0.7320    -0.5020 ca         1 VDN       0.053000
      9 C9          -0.7880     0.2590     0.4490 ca         1 VDN      -0.231900
     10 S10          0.7420     1.8930    -2.8960 sy         1 VDN       1.158600
     11 O11          0.1600     3.0520    -3.5500 o          1 VDN      -0.537000
     12 O12          2.0620     1.9890    -2.2960 o          1 VDN      -0.537000
     13 C13          1.1180    -3.9430    -6.3710 c3         1 VDN      -0.091100
     14 N14          0.8130     0.6880    -4.0270 n3         1 VDN      -0.706500
     15 C15          1.4130    -0.5780    -3.6030 c6         1 VDN       0.186300
     16 C16          1.7250    -1.4170    -4.8280 c6         1 VDN       0.164300
     17 N17          0.5330    -1.6470    -5.6190 n3         1 VDN      -0.718600
     18 C18         -0.0220    -0.3760    -6.0390 c6         1 VDN       0.164300
     19 C19         -0.3850     0.4810    -4.8420 c6         1 VDN       0.186300
     20 C20          0.7770    -2.5140    -6.7600 c3         1 VDN       0.169800
     21 C21         -0.2630    -0.3970     1.6660 cc         1 VDN       0.753800
     22 N22         -0.5030    -1.6430     1.9050 nd         1 VDN      -0.697100
     23 C23         -0.0290    -2.2360     3.0660 c          1 VDN       0.754100
     24 C24          0.7840    -1.4090     3.9330 cc         1 VDN      -0.321600
     25 N25          1.0190    -0.1010     3.5700 na         1 VDN       0.081000
     26 N26          0.4940     0.4090     2.4310 na         1 VDN      -0.771700
     27 O27         -0.2880    -3.3980     3.3200 o          1 VDN      -0.511100
     28 C28          1.4840    -1.5660     5.1100 cd         1 VDN       0.345300
     29 N29          2.1010    -0.4010     5.4230 nd         1 VDN      -0.677000
     30 C30          1.8160     0.4790     4.4810 cc         1 VDN       0.426800
     31 C31          1.5890    -2.7730     5.9720 c3         1 VDN      -0.120400
     32 C32          2.3090     1.8760     4.3750 c3         1 VDN      -0.111700
     33 C33          3.4450     2.0340     3.3570 c3         1 VDN      -0.078400
     34 C34          3.9210     3.4760     3.2700 c3         1 VDN      -0.091100
     35 H11         -6.0520    -0.3380     2.3800 hc         1 VDN       0.055367
     36 H12         -4.7630    -1.5350     2.4850 hc         1 VDN       0.055367
     37 H13         -4.6000     0.0230     3.3120 hc         1 VDN       0.055367
     38 H21         -4.6060     1.1940     1.0900 h1         1 VDN       0.041700
     39 H22         -4.7450    -0.3700     0.2730 h1         1 VDN       0.041700
     40 H5          -3.6990     1.2020    -1.0430 ha         1 VDN       0.130000
     41 H6          -2.1410     2.0190    -2.7030 ha         1 VDN       0.135000
     42 H8           1.1630     0.6080    -0.3460 ha         1 VDN       0.147000
     43 H131         1.1800    -4.5640    -7.2650 hc         1 VDN       0.039700
     44 H132         2.0760    -4.0220    -5.8580 hc         1 VDN       0.039700
     45 H133         0.3490    -4.3640    -5.7220 hc         1 VDN       0.039700
     46 H151         2.3390    -0.3880    -3.0640 h1         1 VDN       0.061700
     47 H152         0.7320    -1.1320    -2.9450 h1         1 VDN       0.061700
     48 H161         2.1300    -2.3660    -4.4770 h1         1 VDN       0.045450
     49 H162         2.5160    -0.9200    -5.4160 h1         1 VDN       0.045450
     50 H181        -0.9330    -0.5520    -6.6160 h1         1 VDN       0.045450
     51 H182         0.6730     0.1860    -6.6850 h1         1 VDN       0.045450
     52 H191        -1.1730    -0.0170    -4.2630 h1         1 VDN       0.061700
     53 H192        -0.7660     1.4370    -5.1930 h1         1 VDN       0.061700
     54 H201        -0.1350    -2.5230    -7.3620 h1         1 VDN       0.031200
     55 H202         1.5710    -2.1070    -7.4080 h1         1 VDN       0.031200
     56 H26          0.4550     1.4160     2.3490 hn         1 VDN       0.534000
     57 H311         0.8460    -2.7500     6.7720 hc         1 VDN       0.056700
     58 H312         1.4290    -3.6850     5.4030 hc         1 VDN       0.056700
     59 H313         2.5710    -2.8210     6.4410 hc         1 VDN       0.056700
     60 H321         1.4850     2.5510     4.1200 hc         1 VDN       0.062700
     61 H322         2.6550     2.1790     5.3640 hc         1 VDN       0.062700
     62 H331         4.2730     1.3820     3.6450 hc         1 VDN       0.050200
     63 H332         3.1170     1.6980     2.3690 hc         1 VDN       0.050200
     64 H341         4.7360     3.5790     2.5540 hc         1 VDN       0.037033
     65 H342         3.1140     4.1390     2.9530 hc         1 VDN       0.037033
     66 H343         4.2810     3.8320     4.2370 hc         1 VDN       0.037033
@<TRIPOS>BOND
     1     1     2 1   
     2     1    35 1   
     3     1    36 1   
     4     1    37 1   
     5     2     3 1   
     6     2    38 1   
     7     2    39 1   
     8     3     4 1   
     9     4     5 ar  
    10     4     9 ar  
    11     5     6 ar  
    12     5    40 1   
    13     6     7 ar  
    14     6    41 1   
    15     7     8 ar  
    16     7    10 1   
    17     8     9 ar  
    18     8    42 1   
    19     9    21 1   
    20    10    11 2   
    21    10    12 2   
    22    10    14 1   
    23    13    20 1   
    24    13    43 1   
    25    13    44 1   
    26    13    45 1   
    27    14    15 1   
    28    14    19 1   
    29    15    16 1   
    30    15    46 1   
    31    15    47 1   
    32    16    17 1   
    33    16    48 1   
    34    16    49 1   
    35    17    18 1   
    36    17    20 1   
    37    18    19 1   
    38    18    50 1   
    39    18    51 1   
    40    19    52 1   
    41    19    53 1   
    42    20    54 1   
    43    20    55 1   
    44    21    22 2   
    45    21    26 1   
    46    22    23 1   
    47    23    24 1   
    48    23    27 2   
    49    24    25 1   
    50    24    28 2   
    51    25    26 1   
    52    25    30 1   
    53    26    56 1   
    54    28    29 1   
    55    28    31 1   
    56    29    30 2   
    57    30    32 1   
    58    31    57 1   
    59    31    58 1   
    60    31    59 1   
    61    32    33 1   
    62    32    60 1   
    63    32    61 1   
    64    33    34 1   
    65    33    62 1   
    66    33    63 1   
    67    34    64 1   
    68    34    65 1   
    69    34    66 1   
@<TRIPOS>SUBSTRUCTURE
     1 VDN         1 TEMP              0 ****  ****    0 ROOT
