@<TRIPOS>MOLECULE
VDN
   66    69     1     0     0
SMALL
No Charge or Current Charge


@<TRIPOS>ATOM
      1 C1          -5.3040    -0.5900     2.2970 c3         1 VDN      -0.098100
      2 C2          -4.7330     0.0940     1.0450 c3         1 VDN       0.164600
      3 O3          -3.3020     0.0650     1.1560 os         1 VDN      -0.324100
      4 C4          -2.4670     0.5850     0.1850 ca         1 VDN       0.252100
      5 C5          -2.9810     1.2330    -0.9580 ca         1 VDN      -0.236000
      6 C6          -2.1170     1.7880    -1.9120 ca         1 VDN       0.050000
      7 C7          -0.7270     1.6940    -1.7310 ca         1 VDN      -0.362500
      8 C8          -0.2060     1.0570    -0.5900 ca         1 VDN       0.053000
      9 C9          -1.0730     0.5030     0.3750 ca         1 VDN      -0.231900
     10 S10          0.3880     2.3900    -2.9570 sy         1 VDN       1.158600
     11 O11         -0.3190     3.3860    -3.7690 o          1 VDN      -0.537000
     12 O12          1.6660     2.7160    -2.3150 o          1 VDN      -0.537000
     13 C13          1.7240    -3.9990    -5.5210 c3         1 VDN      -0.091100
     14 N14          0.6960     1.0710    -3.9900 n3         1 VDN      -0.706500
     15 C15          1.5650     0.0010    -3.4180 c6         1 VDN       0.186300
     16 C16          1.9250    -1.0940    -4.4690 c6         1 VDN       0.164300
     17 N17          0.7100    -1.7050    -5.0980 n3         1 VDN      -0.718600
     18 C18         -0.1560    -0.6260    -5.6630 c6         1 VDN       0.164300
     19 C19         -0.5180     0.4610    -4.6060 c6         1 VDN       0.186300
     20 C20          1.0130    -2.7580    -6.0960 c3         1 VDN       0.169800
     21 C21         -0.5200    -0.1840     1.5310 cc         1 VDN       0.753800
     22 N22         -0.8530    -1.4320     1.8320 nd         1 VDN      -0.697100
     23 C23         -0.2840    -2.1360     2.8860 c          1 VDN       0.754100
     24 C24          0.5820    -1.3220     3.6900 cc         1 VDN      -0.321600
     25 N25          0.7480    -0.0040     3.5290 na         1 VDN       0.081000
     26 N26          0.5910     0.3620     2.1850 na         1 VDN      -0.771700
     27 O27         -0.5210    -3.3190     3.0630 o          1 VDN      -0.511100
     28 C28          1.4090    -1.6810     4.7190 cd         1 VDN       0.345300
     29 N29          2.2420    -0.6190     5.0450 nd         1 VDN      -0.677000
     30 C30          1.8960     0.3660     4.2200 cc         1 VDN       0.426800
     31 C31          1.5800    -3.0270     5.3640 c3         1 VDN      -0.120400
     32 C32          2.5940     1.6990     4.1230 c3         1 VDN      -0.111700
     33 C33          3.7920     1.6920     3.1450 c3         1 VDN      -0.078400
     34 C34          4.4890     3.0620     3.0340 c3         1 VDN      -0.091100
     35 H11         -6.4000    -0.5970     2.2600 hc         1 VDN       0.055367
     36 H12         -4.9550    -1.6280     2.3630 hc         1 VDN       0.055367
     37 H13         -4.9940    -0.0580     3.2040 hc         1 VDN       0.055367
     38 H21         -5.1010     1.1270     0.9940 h1         1 VDN       0.041700
     39 H22         -5.0660    -0.4470     0.1500 h1         1 VDN       0.041700
     40 H5          -4.0500     1.3220    -1.1240 ha         1 VDN       0.130000
     41 H6          -2.5330     2.2840    -2.7880 ha         1 VDN       0.135000
     42 H8           0.8730     0.9750    -0.4610 ha         1 VDN       0.147000
     43 H131         1.8020    -4.7770    -6.2890 hc         1 VDN       0.039700
     44 H132         2.7390    -3.7570    -5.1850 hc         1 VDN       0.039700
     45 H133         1.1610    -4.4090    -4.6740 hc         1 VDN       0.039700
     46 H151         2.5060     0.4230    -3.0370 h1         1 VDN       0.061700
     47 H152         1.0630    -0.4880    -2.5700 h1         1 VDN       0.061700
     48 H161         2.5290    -1.8600    -3.9630 h1         1 VDN       0.045450
     49 H162         2.5620    -0.6390    -5.2410 h1         1 VDN       0.045450
     50 H181        -1.0900    -1.0530    -6.0570 h1         1 VDN       0.045450
     51 H182         0.3520    -0.1350    -6.5070 h1         1 VDN       0.045450
     52 H191        -1.1480    -0.0090    -3.8360 h1         1 VDN       0.061700
     53 H192        -1.1300     1.2290    -5.1000 h1         1 VDN       0.061700
     54 H201         0.0740    -3.1020    -6.5520 h1         1 VDN       0.031200
     55 H202         1.6290    -2.3450    -6.9070 h1         1 VDN       0.031200
     56 H26          0.9540     1.2790     1.9500 hn         1 VDN       0.534000
     57 H311         0.6220    -3.4010     5.7420 hc         1 VDN       0.056700
     58 H312         1.9690    -3.7560     4.6450 hc         1 VDN       0.056700
     59 H313         2.2780    -2.9820     6.2080 hc         1 VDN       0.056700
     60 H321         1.8750     2.4690     3.8180 hc         1 VDN       0.062700
     61 H322         2.9480     1.9900     5.1190 hc         1 VDN       0.062700
     62 H331         4.5240     0.9440     3.4750 hc         1 VDN       0.050200
     63 H332         3.4520     1.3830     2.1480 hc         1 VDN       0.050200
     64 H341         5.3320     3.0060     2.3340 hc         1 VDN       0.037033
     65 H342         3.7910     3.8250     2.6700 hc         1 VDN       0.037033
     66 H343         4.8750     3.3810     4.0100 hc         1 VDN       0.037033
@<TRIPOS>BOND
     1     1     2 1   
     2     1    35 1   
     3     1    36 1   
     4     1    37 1   
     5     2     3 1   
     6     2    38 1   
     7     2    39 1   
     8     3     4 1   
     9     4     5 ar  
    10     4     9 ar  
    11     5     6 ar  
    12     5    40 1   
    13     6     7 ar  
    14     6    41 1   
    15     7     8 ar  
    16     7    10 1   
    17     8     9 ar  
    18     8    42 1   
    19     9    21 1   
    20    10    11 2   
    21    10    12 2   
    22    10    14 1   
    23    13    20 1   
    24    13    43 1   
    25    13    44 1   
    26    13    45 1   
    27    14    15 1   
    28    14    19 1   
    29    15    16 1   
    30    15    46 1   
    31    15    47 1   
    32    16    17 1   
    33    16    48 1   
    34    16    49 1   
    35    17    18 1   
    36    17    20 1   
    37    18    19 1   
    38    18    50 1   
    39    18    51 1   
    40    19    52 1   
    41    19    53 1   
    42    20    54 1   
    43    20    55 1   
    44    21    22 2   
    45    21    26 1   
    46    22    23 1   
    47    23    24 1   
    48    23    27 2   
    49    24    25 1   
    50    24    28 2   
    51    25    26 1   
    52    25    30 1   
    53    26    56 1   
    54    28    29 1   
    55    28    31 1   
    56    29    30 2   
    57    30    32 1   
    58    31    57 1   
    59    31    58 1   
    60    31    59 1   
    61    32    33 1   
    62    32    60 1   
    63    32    61 1   
    64    33    34 1   
    65    33    62 1   
    66    33    63 1   
    67    34    64 1   
    68    34    65 1   
    69    34    66 1   
@<TRIPOS>SUBSTRUCTURE
     1 VDN         1 TEMP              0 ****  ****    0 ROOT
