@<TRIPOS>MOLECULE
VDP
   95    99     1     0     0
SMALL
No Charge or Current Charge


@<TRIPOS>ATOM
      1 O3           6.1500     4.0230    -0.0170 o          1 VDP      -0.556000
      2 C25          5.0500     3.8820    -0.5390 c          1 VDP       0.532000
      3 C26          3.9860     4.9740    -0.8840 c5         1 VDP       0.104000
      4 O4           3.9080     5.9760     0.1440 oh         1 VDP      -0.641000
      5 C24          4.3570     5.6890    -2.2080 c3         1 VDP      -0.118100
      6 C27          2.6670     4.1500    -0.9700 c5         1 VDP      -0.086400
      7 C23          3.1570     2.7900    -1.5580 c5         1 VDP       0.115700
      8 N28          4.4580     2.6560    -0.8670 n          1 VDP      -0.408800
      9 C28          5.2280     1.4000    -0.7400 c3         1 VDP       0.111000
     10 C29          5.0080     0.6850     0.6090 c3         1 VDP      -0.096400
     11 C30          5.8100    -0.6280     0.7310 c3         1 VDP      -0.073400
     12 C31          5.5890    -1.3510     2.0760 c3         1 VDP      -0.030100
     13 C32          6.3850    -2.6460     2.1660 ca         1 VDP      -0.079300
     14 C33          7.6910    -2.6420     2.6930 ca         1 VDP      -0.107500
     15 C34          8.4280    -3.8370     2.7720 ca         1 VDP      -0.109500
     16 C35          7.8630    -5.0430     2.3240 ca         1 VDP      -0.112000
     17 C36          6.5610    -5.0530     1.7960 ca         1 VDP      -0.109500
     18 C37          5.8240    -3.8580     1.7160 ca         1 VDP      -0.107500
     19 C22          2.1810     1.5960    -1.3600 c3         1 VDP      -0.090400
     20 C20          0.7430     1.7430    -1.9560 c3         1 VDP      -0.048700
     21 C21          0.8070     1.9630    -3.4890 c3         1 VDP      -0.089100
     22 C16         -0.1550     0.4880    -1.5470 c5         1 VDP      -0.053700
     23 C11         -1.6530     0.4240    -2.0350 c5         1 VDP      -0.035000
     24 C18         -2.4480     1.7420    -1.7470 c3         1 VDP      -0.079100
     25 C9          -2.0990    -0.8230    -1.1600 c5         1 VDP      -0.035500
     26 C15         -1.6990    -0.3570     0.2650 c5         1 VDP      -0.070400
     27 C17         -0.3110     0.3240     0.0170 c5         1 VDP      -0.078400
     28 C12         -1.9200     0.0050    -3.5410 c6         1 VDP      -0.062400
     29 C13         -3.4100    -0.4210    -3.8560 c6         1 VDP      -0.071400
     30 C14         -3.9310    -1.5200    -2.8850 c6         1 VDP      -0.041200
     31 C8          -3.5900    -1.2340    -1.4150 c2         1 VDP      -0.080400
     32 C7          -4.4190    -1.3940    -0.3470 ce         1 VDP      -0.189000
     33 C6          -5.8350    -1.8060    -0.4010 ce         1 VDP      -0.164000
     34 C5          -6.6110    -2.1900     0.6580 cf         1 VDP      -0.063200
     35 C4          -8.1030    -2.5040     0.4320 c6         1 VDP      -0.074200
     36 C3          -9.0010    -1.8090     1.4810 c6         1 VDP       0.176300
     37 O2         -10.3670    -2.2010     1.2940 oh         1 VDP      -0.661000
     38 C2          -8.5410    -2.1770     2.9070 c6         1 VDP      -0.065400
     39 C1          -7.0680    -1.7750     3.1510 c6         1 VDP       0.211500
     40 O1          -6.9550    -0.3540     3.2560 oh         1 VDP      -0.656000
     41 C10         -6.1460    -2.3310     2.0470 cf         1 VDP      -0.126200
     42 C19         -4.9910    -2.9590     2.3750 c2         1 VDP      -0.295000
     43 H1           4.8320     6.1760     0.4180 ho         1 VDP       0.463000
     44 H2           4.4530     4.9770    -3.0370 hc         1 VDP       0.049367
     45 H3           3.5940     6.4240    -2.4900 hc         1 VDP       0.049367
     46 H4           5.3140     6.2180    -2.1200 hc         1 VDP       0.049367
     47 H5           2.2310     4.0040     0.0250 hc         1 VDP       0.070700
     48 H6           1.9040     4.6300    -1.5920 hc         1 VDP       0.070700
     49 H7           3.3550     2.8930    -2.6320 h1         1 VDP       0.049700
     50 H8           4.9420     0.7250    -1.5570 h1         1 VDP       0.050700
     51 H9           6.2980     1.6140    -0.8640 h1         1 VDP       0.050700
     52 H10          5.2950     1.3630     1.4220 hc         1 VDP       0.050200
     53 H11          3.9420     0.4660     0.7380 hc         1 VDP       0.050200
     54 H12          5.5270    -1.3010    -0.0880 hc         1 VDP       0.043200
     55 H13          6.8790    -0.4110     0.6110 hc         1 VDP       0.043200
     56 H14          5.8680    -0.6790     2.8970 hc         1 VDP       0.047200
     57 H15          4.5190    -1.5590     2.2020 hc         1 VDP       0.047200
     58 H16          8.1370    -1.7120     3.0400 ha         1 VDP       0.110000
     59 H17          9.4360    -3.8270     3.1800 ha         1 VDP       0.111000
     60 H18          8.4330    -5.9670     2.3850 ha         1 VDP       0.111000
     61 H19          6.1230    -5.9850     1.4470 ha         1 VDP       0.111000
     62 H20          4.8180    -3.8730     1.3040 ha         1 VDP       0.110000
     63 H21          2.6320     0.6860    -1.7740 hc         1 VDP       0.053200
     64 H22          2.0930     1.4260    -0.2820 hc         1 VDP       0.053200
     65 H23          0.3400     2.6930    -1.5420 hc         1 VDP       0.050700
     66 H24          1.5340     2.7330    -3.7640 hc         1 VDP       0.034033
     67 H25          1.0740     1.0360    -4.0110 hc         1 VDP       0.034033
     68 H26         -0.1550     2.3200    -3.8670 hc         1 VDP       0.034033
     69 H27          0.3790    -0.3860    -1.9410 hc         1 VDP       0.045700
     70 H28         -2.2110     2.5140    -2.4880 hc         1 VDP       0.035367
     71 H29         -3.5310     1.5790    -1.7790 hc         1 VDP       0.035367
     72 H30         -2.2190     2.1710    -0.7660 hc         1 VDP       0.035367
     73 H31         -1.4890    -1.6980    -1.4210 hc         1 VDP       0.052700
     74 H32         -2.4120     0.3590     0.6880 hc         1 VDP       0.045200
     75 H33         -1.6260    -1.1940     0.9680 hc         1 VDP       0.045200
     76 H34          0.5040    -0.2820     0.4280 hc         1 VDP       0.042200
     77 H35         -0.2690     1.2900     0.5330 hc         1 VDP       0.042200
     78 H36         -1.6550     0.8160    -4.2270 hc         1 VDP       0.039700
     79 H37         -1.2560    -0.8310    -3.8020 hc         1 VDP       0.039700
     80 H38         -4.0650     0.4580    -3.7900 hc         1 VDP       0.041200
     81 H39         -3.4850    -0.7770    -4.8920 hc         1 VDP       0.041200
     82 H40         -5.0070    -1.6490    -3.0460 hc         1 VDP       0.046700
     83 H41         -3.4720    -2.4790    -3.1620 hc         1 VDP       0.046700
     84 H42         -4.0530    -1.2080     0.6590 ha         1 VDP       0.174000
     85 H43         -6.3180    -1.7650    -1.3750 ha         1 VDP       0.170000
     86 H44         -8.4130    -2.1960    -0.5750 hc         1 VDP       0.051700
     87 H45         -8.2450    -3.5930     0.4800 hc         1 VDP       0.051700
     88 H46         -8.9060    -0.7190     1.3540 h1         1 VDP       0.050700
     89 H47        -10.6330    -1.8810     0.4030 ho         1 VDP       0.442000
     90 H48         -9.1880    -1.6930     3.6510 hc         1 VDP       0.062700
     91 H49         -8.6480    -3.2590     3.0600 hc         1 VDP       0.062700
     92 H50         -6.7670    -2.2230     4.1100 h1         1 VDP       0.037700
     93 H51         -5.9940    -0.1610     3.2000 ho         1 VDP       0.444000
     94 H52         -4.3460    -3.3940     1.6110 ha         1 VDP       0.169000
     95 H53         -4.6750    -3.0680     3.4130 ha         1 VDP       0.169000
@<TRIPOS>BOND
     1     1     2 2   
     2     2     3 1   
     3     2     8 1   
     4     3     4 1   
     5     3     5 1   
     6     3     6 1   
     7     4    43 1   
     8     5    44 1   
     9     5    45 1   
    10     5    46 1   
    11     6     7 1   
    12     6    47 1   
    13     6    48 1   
    14     7     8 1   
    15     7    19 1   
    16     7    49 1   
    17     8     9 1   
    18     9    10 1   
    19     9    50 1   
    20     9    51 1   
    21    10    11 1   
    22    10    52 1   
    23    10    53 1   
    24    11    12 1   
    25    11    54 1   
    26    11    55 1   
    27    12    13 1   
    28    12    56 1   
    29    12    57 1   
    30    13    14 ar  
    31    13    18 ar  
    32    14    15 ar  
    33    14    58 1   
    34    15    16 ar  
    35    15    59 1   
    36    16    17 ar  
    37    16    60 1   
    38    17    18 ar  
    39    17    61 1   
    40    18    62 1   
    41    19    20 1   
    42    19    63 1   
    43    19    64 1   
    44    20    21 1   
    45    20    22 1   
    46    20    65 1   
    47    21    66 1   
    48    21    67 1   
    49    21    68 1   
    50    22    23 1   
    51    22    27 1   
    52    22    69 1   
    53    23    24 1   
    54    23    25 1   
    55    23    28 1   
    56    24    70 1   
    57    24    71 1   
    58    24    72 1   
    59    25    26 1   
    60    25    31 1   
    61    25    73 1   
    62    26    27 1   
    63    26    74 1   
    64    26    75 1   
    65    27    76 1   
    66    27    77 1   
    67    28    29 1   
    68    28    78 1   
    69    28    79 1   
    70    29    30 1   
    71    29    80 1   
    72    29    81 1   
    73    30    31 1   
    74    30    82 1   
    75    30    83 1   
    76    31    32 2   
    77    32    33 1   
    78    32    84 1   
    79    33    34 2   
    80    33    85 1   
    81    34    35 1   
    82    34    41 1   
    83    35    36 1   
    84    35    86 1   
    85    35    87 1   
    86    36    37 1   
    87    36    38 1   
    88    36    88 1   
    89    37    89 1   
    90    38    39 1   
    91    38    90 1   
    92    38    91 1   
    93    39    40 1   
    94    39    41 1   
    95    39    92 1   
    96    40    93 1   
    97    41    42 2   
    98    42    94 1   
    99    42    95 1   
@<TRIPOS>SUBSTRUCTURE
     1 VDP         1 TEMP              0 ****  ****    0 ROOT
