@<TRIPOS>MOLECULE
VDP
   95    99     1     0     0
SMALL
abcg2


@<TRIPOS>ATOM
      1 O3           5.2070     3.8360     0.9480 o          1 VDP      -0.556000
      2 C25          4.2100     3.5580     0.3000 c          1 VDP       0.532000
      3 C26          3.0060     4.4780     0.1110 c5         1 VDP       0.104000
      4 O4           2.6070     5.0620     1.3250 oh         1 VDP      -0.641000
      5 C24          3.3630     5.5390    -0.9280 c3         1 VDP      -0.118100
      6 C27          1.9360     3.5170    -0.3880 c5         1 VDP      -0.086400
      7 C23          2.7140     2.3930    -1.0830 c5         1 VDP       0.115700
      8 N28          4.0040     2.4340    -0.3990 n          1 VDP      -0.408800
      9 C28          5.0470     1.4540    -0.6110 c3         1 VDP       0.111000
     10 C29          5.1330     0.3970     0.4840 c3         1 VDP      -0.096400
     11 C30          6.3330    -0.5190     0.2830 c3         1 VDP      -0.073400
     12 C31          6.4160    -1.6190     1.3420 c3         1 VDP      -0.030100
     13 C32          7.6170    -2.4990     1.1450 ca         1 VDP      -0.079300
     14 C33          8.8350    -2.1900     1.7490 ca         1 VDP      -0.107500
     15 C34          9.9590    -2.9770     1.5330 ca         1 VDP      -0.109500
     16 C35          9.8830    -4.0890     0.7040 ca         1 VDP      -0.112000
     17 C36          8.6750    -4.4070     0.0960 ca         1 VDP      -0.109500
     18 C37          7.5540    -3.6180     0.3170 ca         1 VDP      -0.107500
     19 C22          2.0260     1.0380    -0.9600 c3         1 VDP      -0.090400
     20 C20          0.6730     0.9760    -1.6860 c3         1 VDP      -0.048700
     21 C21          0.8950     0.8980    -3.1950 c3         1 VDP      -0.089100
     22 C16         -0.1670    -0.1840    -1.1320 c5         1 VDP      -0.053700
     23 C11         -1.5840    -0.4060    -1.7120 c5         1 VDP      -0.035000
     24 C18         -2.3440     0.9200    -1.8080 c3         1 VDP      -0.079100
     25 C9          -2.1910    -1.3140    -0.6140 c5         1 VDP      -0.035500
     26 C15         -1.8060    -0.6330     0.6900 c5         1 VDP      -0.070400
     27 C17         -0.4130    -0.0480     0.3940 c5         1 VDP      -0.078400
     28 C12         -1.6590    -1.1770    -3.0320 c6         1 VDP      -0.062400
     29 C13         -3.0850    -1.6200    -3.3570 c6         1 VDP      -0.071400
     30 C14         -3.7520    -2.3920    -2.2120 c6         1 VDP      -0.041200
     31 C8          -3.6140    -1.6810    -0.8950 c2         1 VDP      -0.080400
     32 C7          -4.6170    -1.4080    -0.0440 ce         1 VDP      -0.189000
     33 C6          -6.0230    -1.6940    -0.2510 ce         1 VDP      -0.164000
     34 C5          -7.0110    -1.5180     0.6440 cf         1 VDP      -0.063200
     35 C4          -8.4520    -1.7670     0.2890 c6         1 VDP      -0.074200
     36 C3          -9.3260    -0.5510     0.6100 c6         1 VDP       0.176300
     37 O2         -10.6960    -0.8230     0.4010 oh         1 VDP      -0.661000
     38 C2          -9.1530    -0.1580     2.0700 c6         1 VDP      -0.065400
     39 C1          -7.6980     0.1220     2.4180 c6         1 VDP       0.211500
     40 O1          -7.3060     1.2860     1.7140 oh         1 VDP      -0.656000
     41 C10         -6.8210    -1.0460     2.0280 cf         1 VDP      -0.126200
     42 C19         -5.9820    -1.6020     2.9010 c2         1 VDP      -0.295000
     43 H1           3.3290     5.6120     1.6480 ho         1 VDP       0.463000
     44 H2           3.6130     5.0960    -1.8940 hc         1 VDP       0.049367
     45 H3           2.5160     6.2110    -1.0790 hc         1 VDP       0.049367
     46 H4           4.2200     6.1330    -0.6070 hc         1 VDP       0.049367
     47 H5           1.3930     3.1050     0.4680 hc         1 VDP       0.070700
     48 H6           1.2120     3.9920    -1.0500 hc         1 VDP       0.070700
     49 H7           2.8720     2.6350    -2.1400 h1         1 VDP       0.049700
     50 H8           4.8760     0.9820    -1.5810 h1         1 VDP       0.050700
     51 H9           6.0020     1.9800    -0.6840 h1         1 VDP       0.050700
     52 H10          5.2070     0.8920     1.4560 hc         1 VDP       0.050200
     53 H11          4.2150    -0.1960     0.5040 hc         1 VDP       0.050200
     54 H12          6.2880    -0.9780    -0.7100 hc         1 VDP       0.043200
     55 H13          7.2530     0.0740     0.3050 hc         1 VDP       0.043200
     56 H14          6.4490    -1.1600     2.3340 hc         1 VDP       0.047200
     57 H15          5.5040    -2.2210     1.3060 hc         1 VDP       0.047200
     58 H16          8.9030    -1.3260     2.3990 ha         1 VDP       0.110000
     59 H17         10.8950    -2.7240     2.0150 ha         1 VDP       0.111000
     60 H18         10.7570    -4.7050     0.5360 ha         1 VDP       0.111000
     61 H19          8.6040    -5.2740    -0.5480 ha         1 VDP       0.111000
     62 H20          6.6140    -3.8760    -0.1590 ha         1 VDP       0.110000
     63 H21          2.6710     0.2480    -1.3610 hc         1 VDP       0.053200
     64 H22          1.9020     0.8330     0.1070 hc         1 VDP       0.053200
     65 H23          0.1280     1.9020    -1.4680 hc         1 VDP       0.050700
     66 H24          1.6210     1.6390    -3.5320 hc         1 VDP       0.034033
     67 H25          1.2730    -0.0850    -3.4850 hc         1 VDP       0.034033
     68 H26         -0.0210     1.0820    -3.7540 hc         1 VDP       0.034033
     69 H27          0.3960    -1.1120    -1.3090 hc         1 VDP       0.045700
     70 H28         -1.9810     1.5180    -2.6450 hc         1 VDP       0.035367
     71 H29         -3.4120     0.7680    -1.9600 hc         1 VDP       0.035367
     72 H30         -2.2320     1.5270    -0.9080 hc         1 VDP       0.035367
     73 H31         -1.6140    -2.2510    -0.6680 hc         1 VDP       0.052700
     74 H32         -2.5100     0.1620     0.9460 hc         1 VDP       0.045200
     75 H33         -1.8000    -1.3290     1.5300 hc         1 VDP       0.045200
     76 H34          0.3610    -0.5650     0.9630 hc         1 VDP       0.042200
     77 H35         -0.3640     1.0020     0.6950 hc         1 VDP       0.042200
     78 H36         -1.2750    -0.5880    -3.8660 hc         1 VDP       0.039700
     79 H37         -1.0120    -2.0590    -2.9570 hc         1 VDP       0.039700
     80 H38         -3.6970    -0.7510    -3.6120 hc         1 VDP       0.041200
     81 H39         -3.0730    -2.2500    -4.2500 hc         1 VDP       0.041200
     82 H40         -4.7900    -2.6020    -2.4680 hc         1 VDP       0.046700
     83 H41         -3.2580    -3.3680    -2.1190 hc         1 VDP       0.046700
     84 H42         -4.3640    -0.9210     0.8910 ha         1 VDP       0.174000
     85 H43         -6.3190    -2.0510    -1.2320 ha         1 VDP       0.170000
     86 H44         -8.5450    -2.0300    -0.7690 hc         1 VDP       0.051700
     87 H45         -8.8320    -2.6170     0.8710 hc         1 VDP       0.051700
     88 H46         -9.0010     0.2820    -0.0260 h1         1 VDP       0.050700
     89 H47        -10.8290    -0.9860    -0.5390 ho         1 VDP       0.442000
     90 H48         -9.7620     0.7190     2.3060 hc         1 VDP       0.062700
     91 H49         -9.5070    -0.9750     2.7070 hc         1 VDP       0.062700
     92 H50         -7.6190     0.2800     3.5010 h1         1 VDP       0.037700
     93 H51         -6.3700     1.4350     1.8800 ho         1 VDP       0.444000
     94 H52         -5.3660    -2.4530     2.6420 ha         1 VDP       0.169000
     95 H53         -5.8970    -1.2280     3.9140 ha         1 VDP       0.169000
@<TRIPOS>BOND
     1     1     2 2   
     2     2     3 1   
     3     2     8 1   
     4     3     4 1   
     5     3     5 1   
     6     3     6 1   
     7     4    43 1   
     8     5    44 1   
     9     5    45 1   
    10     5    46 1   
    11     6     7 1   
    12     6    47 1   
    13     6    48 1   
    14     7     8 1   
    15     7    19 1   
    16     7    49 1   
    17     8     9 1   
    18     9    10 1   
    19     9    50 1   
    20     9    51 1   
    21    10    11 1   
    22    10    52 1   
    23    10    53 1   
    24    11    12 1   
    25    11    54 1   
    26    11    55 1   
    27    12    13 1   
    28    12    56 1   
    29    12    57 1   
    30    13    14 ar  
    31    13    18 ar  
    32    14    15 ar  
    33    14    58 1   
    34    15    16 ar  
    35    15    59 1   
    36    16    17 ar  
    37    16    60 1   
    38    17    18 ar  
    39    17    61 1   
    40    18    62 1   
    41    19    20 1   
    42    19    63 1   
    43    19    64 1   
    44    20    21 1   
    45    20    22 1   
    46    20    65 1   
    47    21    66 1   
    48    21    67 1   
    49    21    68 1   
    50    22    23 1   
    51    22    27 1   
    52    22    69 1   
    53    23    24 1   
    54    23    25 1   
    55    23    28 1   
    56    24    70 1   
    57    24    71 1   
    58    24    72 1   
    59    25    26 1   
    60    25    31 1   
    61    25    73 1   
    62    26    27 1   
    63    26    74 1   
    64    26    75 1   
    65    27    76 1   
    66    27    77 1   
    67    28    29 1   
    68    28    78 1   
    69    28    79 1   
    70    29    30 1   
    71    29    80 1   
    72    29    81 1   
    73    30    31 1   
    74    30    82 1   
    75    30    83 1   
    76    31    32 2   
    77    32    33 1   
    78    32    84 1   
    79    33    34 2   
    80    33    85 1   
    81    34    35 1   
    82    34    41 1   
    83    35    36 1   
    84    35    86 1   
    85    35    87 1   
    86    36    37 1   
    87    36    38 1   
    88    36    88 1   
    89    37    89 1   
    90    38    39 1   
    91    38    90 1   
    92    38    91 1   
    93    39    40 1   
    94    39    41 1   
    95    39    92 1   
    96    40    93 1   
    97    41    42 2   
    98    42    94 1   
    99    42    95 1   
@<TRIPOS>SUBSTRUCTURE
     1 VDP         1 TEMP              0 ****  ****    0 ROOT
