@<TRIPOS>MOLECULE
VDQ
   27    28     1     0     0
SMALL
No Charge or Current Charge


@<TRIPOS>ATOM
      1 N1          11.1560   -41.3220   -10.7530 nv         1 VDQ      -1.060000
      2 C1          11.0050   -42.5220   -11.3940 ca         1 VDQ       0.256000
      3 C2          10.8120   -42.5610   -12.7830 ca         1 VDQ      -0.150500
      4 C3          10.6580   -43.7960   -13.4420 ca         1 VDQ      -0.109000
      5 C4          10.6930   -45.0080   -12.7210 ca         1 VDQ       0.231000
      6 C5          10.8910   -44.9560   -11.3240 ca         1 VDQ      -0.109000
      7 C6          11.0440   -43.7200   -10.6660 ca         1 VDQ      -0.150500
      8 N2          10.5380   -46.2430   -13.4000 nh         1 VDQ      -0.769400
      9 C7          11.1200   -47.5130   -12.8500 c6         1 VDQ       0.150300
     10 C8          11.3000   -48.6070   -13.9450 c6         1 VDQ       0.150100
     11 O1          10.0690   -48.8080   -14.6790 os         1 VDQ      -0.448000
     12 C9           9.6190   -47.6030   -15.3420 c6         1 VDQ       0.150100
     13 C76          9.3640   -46.4640   -14.3090 c6         1 VDQ       0.150300
     14 H1          11.4080   -41.2950    -9.7670 hn         1 VDQ       0.438000
     15 H2          11.2410   -40.4600   -11.2900 hn         1 VDQ       0.438000
     16 H3          10.7840   -41.6390   -13.3570 ha         1 VDQ       0.110500
     17 H4          10.5240   -43.8090   -14.5190 ha         1 VDQ       0.112500
     18 H5          10.9150   -45.8690   -10.7380 ha         1 VDQ       0.112500
     19 H6          11.1920   -43.7000    -9.5890 ha         1 VDQ       0.110500
     20 H7          10.4680   -47.9110   -12.0580 h1         1 VDQ       0.045200
     21 H8          12.1030   -47.3150   -12.3970 h1         1 VDQ       0.045200
     22 H9          11.6010   -49.5550   -13.4790 h1         1 VDQ       0.051200
     23 H10         12.0930   -48.3060   -14.6460 h1         1 VDQ       0.051200
     24 H11         10.3800   -47.2850   -16.0690 h1         1 VDQ       0.051200
     25 H12          8.6930   -47.8200   -15.8930 h1         1 VDQ       0.051200
     26 H13          9.1180   -45.5480   -14.8640 h1         1 VDQ       0.045200
     27 H14          8.4780   -46.7230   -13.7110 h1         1 VDQ       0.045200
@<TRIPOS>BOND
     1     1     2 1   
     2     1    14 1   
     3     1    15 1   
     4     2     3 ar  
     5     2     7 ar  
     6     3     4 ar  
     7     3    16 1   
     8     4     5 ar  
     9     4    17 1   
    10     5     6 ar  
    11     5     8 1   
    12     6     7 ar  
    13     6    18 1   
    14     7    19 1   
    15     8     9 1   
    16     8    13 1   
    17     9    10 1   
    18     9    20 1   
    19     9    21 1   
    20    10    11 1   
    21    10    22 1   
    22    10    23 1   
    23    11    12 1   
    24    12    13 1   
    25    12    24 1   
    26    12    25 1   
    27    13    26 1   
    28    13    27 1   
@<TRIPOS>SUBSTRUCTURE
     1 VDQ         1 TEMP              0 ****  ****    0 ROOT
