@<TRIPOS>MOLECULE
VDQ
   27    28     1     0     0
SMALL
bcc


@<TRIPOS>ATOM
      1 N1          10.9480   -41.3650   -10.6940 nv         1 VDQ      -0.811200
      2 C1          10.9300   -42.5660   -11.3900 ca         1 VDQ       0.117600
      3 C2          10.7100   -42.5970   -12.7720 ca         1 VDQ      -0.168500
      4 C3          10.6430   -43.7950   -13.4590 ca         1 VDQ      -0.127000
      5 C4          10.7700   -45.0260   -12.8060 ca         1 VDQ       0.092600
      6 C5          10.9860   -44.9920   -11.4290 ca         1 VDQ      -0.127000
      7 C6          11.0750   -43.7890   -10.7390 ca         1 VDQ      -0.168500
      8 N2          10.7080   -46.2190   -13.5520 nh         1 VDQ      -0.631000
      9 C7          11.0870   -47.4390   -12.8690 c6         1 VDQ       0.150300
     10 C8          11.2100   -48.5720   -13.8730 c6         1 VDQ       0.126900
     11 O1          10.0200   -48.7640   -14.6000 os         1 VDQ      -0.401600
     12 C9           9.6550   -47.5820   -15.2760 c6         1 VDQ       0.126900
     13 C76          9.4850   -46.4180   -14.3190 c6         1 VDQ       0.150300
     14 H1          11.4570   -41.3920    -9.8240 hn         1 VDQ       0.382800
     15 H2          11.2270   -40.5660   -11.2430 hn         1 VDQ       0.382800
     16 H3          10.6040   -41.6680   -13.3200 ha         1 VDQ       0.128500
     17 H4          10.5040   -43.7660   -14.5330 ha         1 VDQ       0.130500
     18 H5          11.0920   -45.9080   -10.8620 ha         1 VDQ       0.130500
     19 H6          11.2520   -43.8090    -9.6690 ha         1 VDQ       0.128500
     20 H7          10.3640   -47.7210   -12.0860 h1         1 VDQ       0.045200
     21 H8          12.0570   -47.3070   -12.3860 h1         1 VDQ       0.045200
     22 H9          11.4310   -49.5040   -13.3510 h1         1 VDQ       0.051200
     23 H10         12.0460   -48.3590   -14.5540 h1         1 VDQ       0.051200
     24 H11         10.4110   -47.3230   -16.0310 h1         1 VDQ       0.051200
     25 H12          8.7150   -47.7770   -15.7930 h1         1 VDQ       0.051200
     26 H13          9.2520   -45.5280   -14.9030 h1         1 VDQ       0.045200
     27 H14          8.6270   -46.6050   -13.6530 h1         1 VDQ       0.045200
@<TRIPOS>BOND
     1     1     2 1   
     2     1    14 1   
     3     1    15 1   
     4     2     3 ar  
     5     2     7 ar  
     6     3     4 ar  
     7     3    16 1   
     8     4     5 ar  
     9     4    17 1   
    10     5     6 ar  
    11     5     8 1   
    12     6     7 ar  
    13     6    18 1   
    14     7    19 1   
    15     8     9 1   
    16     8    13 1   
    17     9    10 1   
    18     9    20 1   
    19     9    21 1   
    20    10    11 1   
    21    10    22 1   
    22    10    23 1   
    23    11    12 1   
    24    12    13 1   
    25    12    24 1   
    26    12    25 1   
    27    13    26 1   
    28    13    27 1   
@<TRIPOS>SUBSTRUCTURE
     1 VDQ         1 TEMP              0 ****  ****    0 ROOT
