@<TRIPOS>MOLECULE
VDS
   24    24     1     0     0
SMALL
abcg2


@<TRIPOS>ATOM
      1 C4          22.8170     0.5520    69.1510 c5         1 VDS       0.157300
      2 C5          23.7740    -0.2470    70.0270 c5         1 VDS       0.100300
      3 C6          23.0310    -0.2980    71.3570 c5         1 VDS       0.356300
      4 C2          20.7380    -0.9760    68.8740 c3         1 VDS       0.162300
      5 C3          21.4480     0.1100    69.6810 c5         1 VDS       0.143300
      6 O1          21.6680    -0.3880    71.0020 os         1 VDS      -0.494000
      7 O2          23.4180    -1.4050    72.0890 oh         1 VDS      -0.721000
      8 O3          25.0350     0.3580    70.0780 oh         1 VDS      -0.716000
      9 O4          22.9370     1.9380    69.3700 oh         1 VDS      -0.715000
     10 O5          21.5340    -2.1260    68.7020 oh         1 VDS      -0.731000
     11 H5          22.9500     0.3090    68.0910 h1         1 VDS       0.064700
     12 H6          23.8320    -1.2700    69.6310 h1         1 VDS       0.068700
     13 H7          23.2040     0.6270    71.9280 h2         1 VDS       0.053700
     14 H3          19.8160    -1.2240    69.4210 h1         1 VDS       0.058700
     15 H4          20.7890     0.9820    69.7310 h1         1 VDS       0.104700
     16 H8          23.1810    -1.2820    73.0130 ho         1 VDS       0.523000
     17 H9          25.6360    -0.2180    70.5600 ho         1 VDS       0.522000
     18 H10         23.8440     2.1970    69.1720 ho         1 VDS       0.523000
     19 H11         21.6330    -2.5580    69.5560 ho         1 VDS       0.524000
     20 H12         19.2980     0.9330    66.7200 ho         1 VDS       0.451000
     21 C1          20.3370    -0.5150    67.4800 c3         1 VDS       0.161600
     22 O6          19.5210     0.6260    67.6030 oh         1 VDS      -0.662000
     23 H1          19.8090    -1.3410    66.9860 h1         1 VDS       0.032700
     24 H2          21.2350    -0.3100    66.8830 h1         1 VDS       0.032700
@<TRIPOS>BOND
     1     1     2 1   
     2     1     5 1   
     3     1     9 1   
     4     1    11 1   
     5     2     3 1   
     6     2     8 1   
     7     2    12 1   
     8     3     6 1   
     9     3     7 1   
    10     3    13 1   
    11     4     5 1   
    12     4    10 1   
    13     4    14 1   
    14     4    21 1   
    15     5     6 1   
    16     5    15 1   
    17     7    16 1   
    18     8    17 1   
    19     9    18 1   
    20    10    19 1   
    21    20    22 1   
    22    21    22 1   
    23    21    23 1   
    24    21    24 1   
@<TRIPOS>SUBSTRUCTURE
     1 VDS         1 TEMP              0 ****  ****    0 ROOT
