@<TRIPOS>MOLECULE
VDS
   24    24     1     0     0
SMALL
No Charge or Current Charge


@<TRIPOS>ATOM
      1 C4          22.8770     0.4720    69.0860 c5         1 VDS       0.157300
      2 C5          23.8910    -0.2540    70.0170 c5         1 VDS       0.100300
      3 C6          23.0970    -0.1830    71.3590 c5         1 VDS       0.356300
      4 C2          20.6870    -1.0270    68.8260 c3         1 VDS       0.162300
      5 C3          21.4980    -0.0110    69.6880 c5         1 VDS       0.143300
      6 O1          21.8020    -0.6260    70.9770 os         1 VDS      -0.494000
      7 O2          23.5980    -1.0550    72.3490 oh         1 VDS      -0.721000
      8 O3          25.1820     0.3970    70.0440 oh         1 VDS      -0.716000
      9 O4          23.0760     1.8860    69.2060 oh         1 VDS      -0.715000
     10 O5          21.4670    -2.2210    68.6040 oh         1 VDS      -0.731000
     11 H5          23.0070     0.1520    68.0430 h1         1 VDS       0.064700
     12 H6          24.0020    -1.3030    69.7070 h1         1 VDS       0.068700
     13 H7          23.0440     0.8480    71.7370 h2         1 VDS       0.053700
     14 H3          19.7850    -1.2850    69.3990 h1         1 VDS       0.058700
     15 H4          20.8530     0.8600    69.8700 h1         1 VDS       0.104700
     16 H8          22.8010    -1.3090    72.8660 ho         1 VDS       0.523000
     17 H9          25.7070    -0.0550    70.7500 ho         1 VDS       0.522000
     18 H10         24.0360     1.9540    69.4440 ho         1 VDS       0.523000
     19 H11         21.7080    -2.5540    69.5020 ho         1 VDS       0.524000
     20 H12         19.0770     0.9890    66.7530 ho         1 VDS       0.451000
     21 C1          20.2030    -0.4580    67.4600 c3         1 VDS       0.161600
     22 O6          19.3720     0.7000    67.6460 oh         1 VDS      -0.662000
     23 H1          19.6420    -1.2400    66.9320 h1         1 VDS       0.032700
     24 H2          21.0740    -0.2030    66.8420 h1         1 VDS       0.032700
@<TRIPOS>BOND
     1     1     2 1   
     2     1     5 1   
     3     1     9 1   
     4     1    11 1   
     5     2     3 1   
     6     2     8 1   
     7     2    12 1   
     8     3     6 1   
     9     3     7 1   
    10     3    13 1   
    11     4     5 1   
    12     4    10 1   
    13     4    14 1   
    14     4    21 1   
    15     5     6 1   
    16     5    15 1   
    17     7    16 1   
    18     8    17 1   
    19     9    18 1   
    20    10    19 1   
    21    20    22 1   
    22    21    22 1   
    23    21    23 1   
    24    21    24 1   
@<TRIPOS>SUBSTRUCTURE
     1 VDS         1 TEMP              0 ****  ****    0 ROOT
