@<TRIPOS>MOLECULE
VDT
   37    39     1     0     0
SMALL
abcg2


@<TRIPOS>ATOM
      1 C10         -6.8840   -12.2670   -12.5500 ca         1 VDT      -0.207000
      2 C13         -5.0630   -10.5350   -11.3840 ca         1 VDT      -0.048000
      3 C15         -8.7940    -8.3560    -9.1790 cx         1 VDT      -0.118400
      4 C01         -3.9390    -8.0620   -15.0220 ca         1 VDT       0.425900
      5 C02         -5.1270    -9.0180   -13.3500 cp         1 VDT       0.282500
      6 C03         -5.5080    -7.7700   -12.8690 ca         1 VDT      -0.206000
      7 C04         -4.9960    -6.6530   -13.5870 ca         1 VDT       0.442900
      8 C05         -6.3560    -7.5900   -11.7490 cg         1 VDT      -0.081000
      9 C06         -7.0780    -7.4020   -10.7990 c1         1 VDT      -0.130100
     10 C07         -7.9400    -7.2110    -9.6680 cx         1 VDT      -0.044600
     11 C08         -5.5670   -10.2450   -12.6430 cp         1 VDT      -0.182500
     12 C09         -6.4920   -11.1170   -13.2320 ca         1 VDT       0.174100
     13 C11         -6.3570   -12.5430   -11.2930 ca         1 VDT      -0.064000
     14 C12         -5.4460   -11.6830   -10.7030 ca         1 VDT      -0.156000
     15 C14         -7.9410   -11.5680   -15.0560 c3         1 VDT       0.148900
     16 C16         -7.6370    -7.9000    -8.3600 cx         1 VDT      -0.118400
     17 N01         -4.2220    -6.8130   -14.6520 nb         1 VDT      -0.343000
     18 N02         -4.3520    -9.1790   -14.4150 nb         1 VDT      -0.269000
     19 N03         -5.2740    -5.4040   -13.1980 nv         1 VDT      -1.076900
     20 O01         -6.9620   -10.7570   -14.4390 os         1 VDT      -0.326100
     21 H1          -7.5990   -12.9540   -12.9820 ha         1 VDT       0.116000
     22 H2          -4.3540    -9.8510   -10.9320 ha         1 VDT       0.120000
     23 H4          -8.7090    -9.2990    -9.7030 hc         1 VDT       0.074950
     24 H5          -8.3820    -6.2230    -9.5970 hc         1 VDT       0.086700
     25 H6          -6.6720   -13.4410   -10.7780 ha         1 VDT       0.110000
     26 H7          -5.0370   -11.8980    -9.7240 ha         1 VDT       0.116000
     27 H8          -8.1860   -11.0890   -16.0010 h1         1 VDT       0.040033
     28 H9          -7.5700   -12.5760   -15.2600 h1         1 VDT       0.040033
     29 H10         -8.8490   -11.6420   -14.4530 h1         1 VDT       0.040033
     30 H11         -6.7580    -8.5300    -8.3230 hc         1 VDT       0.074950
     31 H12         -7.8320    -7.3410    -7.4540 hc         1 VDT       0.074950
     32 H13         -4.9750    -4.6290   -13.7640 hn         1 VDT       0.500000
     33 H14         -5.9270    -5.2240   -12.4550 hn         1 VDT       0.500000
     34 N04         -3.1820    -8.2140   -16.1250 nv         1 VDT      -1.061900
     35 H3          -9.7940    -8.1140    -8.8440 hc         1 VDT       0.074950
     36 H15         -2.7020    -7.4160   -16.5030 hn         1 VDT       0.495500
     37 H16         -2.8070    -9.1220   -16.3340 hn         1 VDT       0.495500
@<TRIPOS>BOND
     1     1    12 ar  
     2     1    13 ar  
     3     1    21 1   
     4     2    11 ar  
     5     2    14 ar  
     6     2    22 1   
     7     3    10 1   
     8     3    16 1   
     9     3    23 1   
    10     3    35 1   
    11     4    17 ar  
    12     4    18 ar  
    13     4    34 1   
    14     5     6 ar  
    15     5    11 1   
    16     5    18 ar  
    17     6     7 ar  
    18     6     8 1   
    19     7    17 ar  
    20     7    19 1   
    21     8     9 3   
    22     9    10 1   
    23    10    16 1   
    24    10    24 1   
    25    11    12 ar  
    26    12    20 1   
    27    13    14 ar  
    28    13    25 1   
    29    14    26 1   
    30    15    20 1   
    31    15    27 1   
    32    15    28 1   
    33    15    29 1   
    34    16    30 1   
    35    16    31 1   
    36    19    32 1   
    37    19    33 1   
    38    34    36 1   
    39    34    37 1   
@<TRIPOS>SUBSTRUCTURE
     1 VDT         1 TEMP              0 ****  ****    0 ROOT
