@<TRIPOS>MOLECULE
VDT
   37    39     1     0     0
SMALL
No Charge or Current Charge


@<TRIPOS>ATOM
      1 C10         -6.9440   -12.3160   -12.5850 ca         1 VDT      -0.207000
      2 C13         -5.2950   -10.4540   -11.2800 ca         1 VDT      -0.048000
      3 C15         -8.6590    -8.3650    -9.0670 cx         1 VDT      -0.118400
      4 C01         -4.0220    -8.0330   -15.0350 ca         1 VDT       0.425900
      5 C02         -5.2130    -8.9650   -13.3180 cp         1 VDT       0.282500
      6 C03         -5.5130    -7.6560   -12.8490 ca         1 VDT      -0.206000
      7 C04         -4.9850    -6.5840   -13.5960 ca         1 VDT       0.442900
      8 C05         -6.3320    -7.4390   -11.6840 cg         1 VDT      -0.081000
      9 C06         -7.0210    -7.2930   -10.6960 c1         1 VDT      -0.130100
     10 C07         -7.8370    -7.1760    -9.5090 cx         1 VDT      -0.044600
     11 C08         -5.6790   -10.2060   -12.6220 cp         1 VDT      -0.182500
     12 C09         -6.5150   -11.1550   -13.2660 ca         1 VDT       0.174100
     13 C11         -6.5470   -12.5390   -11.2560 ca         1 VDT      -0.064000
     14 C12         -5.7250   -11.6070   -10.6050 ca         1 VDT      -0.156000
     15 C14         -7.7610   -11.7530   -15.3140 c3         1 VDT       0.148900
     16 C16         -7.4460    -7.9500    -8.2710 cx         1 VDT      -0.118400
     17 N01         -4.2400    -6.7630   -14.6890 nb         1 VDT      -0.343000
     18 N02         -4.4560    -9.1360   -14.4190 nb         1 VDT      -0.269000
     19 N03         -5.1920    -5.2800   -13.2730 nv         1 VDT      -1.076900
     20 O01         -6.9040   -10.8760   -14.5620 os         1 VDT      -0.326100
     21 H1          -7.5860   -13.0480   -13.0640 ha         1 VDT       0.116000
     22 H2          -4.6550    -9.7430   -10.7620 ha         1 VDT       0.120000
     23 H4          -8.5920    -9.2820    -9.6480 hc         1 VDT       0.074950
     24 H5          -8.2720    -6.1900    -9.3600 hc         1 VDT       0.086700
     25 H6          -6.8800   -13.4320   -10.7300 ha         1 VDT       0.110000
     26 H7          -5.4190   -11.7790    -9.5750 ha         1 VDT       0.116000
     27 H8          -7.9400   -11.3420   -16.3150 h1         1 VDT       0.040033
     28 H9          -7.3000   -12.7420   -15.4310 h1         1 VDT       0.040033
     29 H10         -8.7310   -11.8710   -14.8160 h1         1 VDT       0.040033
     30 H11         -6.5680    -8.5900    -8.3190 hc         1 VDT       0.074950
     31 H12         -7.6100    -7.4760    -7.3060 hc         1 VDT       0.074950
     32 H13         -4.9990    -4.5770   -13.9820 hn         1 VDT       0.500000
     33 H14         -5.9240    -5.0640   -12.6010 hn         1 VDT       0.500000
     34 N04         -3.2620    -8.2180   -16.1370 nv         1 VDT      -1.061900
     35 H3          -9.6390    -8.1700    -8.6370 hc         1 VDT       0.074950
     36 H15         -2.7300    -7.4260   -16.4890 hn         1 VDT       0.495500
     37 H16         -2.8760    -9.1420   -16.3110 hn         1 VDT       0.495500
@<TRIPOS>BOND
     1     1    12 ar  
     2     1    13 ar  
     3     1    21 1   
     4     2    11 ar  
     5     2    14 ar  
     6     2    22 1   
     7     3    10 1   
     8     3    16 1   
     9     3    23 1   
    10     3    35 1   
    11     4    17 ar  
    12     4    18 ar  
    13     4    34 1   
    14     5     6 ar  
    15     5    11 1   
    16     5    18 ar  
    17     6     7 ar  
    18     6     8 1   
    19     7    17 ar  
    20     7    19 1   
    21     8     9 3   
    22     9    10 1   
    23    10    16 1   
    24    10    24 1   
    25    11    12 ar  
    26    12    20 1   
    27    13    14 ar  
    28    13    25 1   
    29    14    26 1   
    30    15    20 1   
    31    15    27 1   
    32    15    28 1   
    33    15    29 1   
    34    16    30 1   
    35    16    31 1   
    36    19    32 1   
    37    19    33 1   
    38    34    36 1   
    39    34    37 1   
@<TRIPOS>SUBSTRUCTURE
     1 VDT         1 TEMP              0 ****  ****    0 ROOT
