@<TRIPOS>MOLECULE
VDV
   24    24     1     0     0
SMALL
abcg2


@<TRIPOS>ATOM
      1 C4          22.9220     0.2440    69.2090 c5         1 VDV       0.119300
      2 C5          23.8960    -0.6710    69.9780 c5         1 VDV       0.114300
      3 C6          23.0970    -1.0410    71.2290 c5         1 VDV       0.349300
      4 C2          20.7230    -0.9810    68.6450 c3         1 VDV       0.168300
      5 C3          21.5480    -0.2350    69.6890 c5         1 VDV       0.134300
      6 O1          21.7830    -1.1470    70.7690 os         1 VDV      -0.488000
      7 O2          23.2650    -0.0280    72.1700 oh         1 VDV      -0.733000
      8 O3          25.1530    -0.1180    70.2250 oh         1 VDV      -0.704000
      9 O4          23.0760     1.6030    69.5410 oh         1 VDV      -0.704000
     10 O5          21.4410    -2.0500    68.0760 oh         1 VDV      -0.729000
     11 H5          23.0460     0.0980    68.1290 h1         1 VDV       0.060700
     12 H6          24.0470    -1.5820    69.3930 h1         1 VDV       0.086700
     13 H7          23.3710    -2.0160    71.6460 h2         1 VDV       0.068700
     14 H3          19.8130    -1.3450    69.1460 h1         1 VDV       0.059700
     15 H4          20.9700     0.6210    70.0500 h1         1 VDV       0.102700
     16 H8          23.0400    -0.3570    73.0460 ho         1 VDV       0.520000
     17 H9          25.0650     0.4920    70.9660 ho         1 VDV       0.528000
     18 H10         23.9320     1.8950    69.2110 ho         1 VDV       0.511000
     19 H11         21.6240    -2.6940    68.7680 ho         1 VDV       0.518000
     20 H12         19.2870     1.5600    67.2910 ho         1 VDV       0.451000
     21 C1          20.2890    -0.0870    67.4920 c3         1 VDV       0.163600
     22 O6          19.5210     0.9720    68.0140 oh         1 VDV      -0.661000
     23 H2          19.7120    -0.6970    66.7840 h1         1 VDV       0.033200
     24 H1          21.1720     0.2770    66.9500 h1         1 VDV       0.033200
@<TRIPOS>BOND
     1     1     2 1   
     2     1     5 1   
     3     1     9 1   
     4     1    11 1   
     5     2     3 1   
     6     2     8 1   
     7     2    12 1   
     8     3     6 1   
     9     3     7 1   
    10     3    13 1   
    11     4     5 1   
    12     4    10 1   
    13     4    14 1   
    14     4    21 1   
    15     5     6 1   
    16     5    15 1   
    17     7    16 1   
    18     8    17 1   
    19     9    18 1   
    20    10    19 1   
    21    20    22 1   
    22    21    22 1   
    23    21    23 1   
    24    21    24 1   
@<TRIPOS>SUBSTRUCTURE
     1 VDV         1 TEMP              0 ****  ****    0 ROOT
