@<TRIPOS>MOLECULE
VDV
   24    24     1     0     0
SMALL
No Charge or Current Charge


@<TRIPOS>ATOM
      1 C4          23.1890    -0.3310    68.8360 c5         1 VDV       0.119300
      2 C5          24.1500    -0.2540    70.0610 c5         1 VDV       0.114300
      3 C6          23.4240    -1.1980    71.1000 c5         1 VDV       0.349300
      4 C2          20.5680    -0.8530    68.7680 c3         1 VDV       0.168300
      5 C3          21.8230    -0.4230    69.5900 c5         1 VDV       0.134300
      6 O1          22.1020    -1.4280    70.5930 os         1 VDV      -0.488000
      7 O2          23.2990    -0.5400    72.3550 oh         1 VDV      -0.733000
      8 O3          24.2010     1.0930    70.5720 oh         1 VDV      -0.704000
      9 O4          23.3510     0.8380    68.0270 oh         1 VDV      -0.704000
     10 O5          20.8020    -2.1410    68.1580 oh         1 VDV      -0.729000
     11 H5          23.3730    -1.2420    68.2480 h1         1 VDV       0.060700
     12 H6          25.1540    -0.6280    69.8150 h1         1 VDV       0.086700
     13 H7          23.9530    -2.1550    71.2080 h2         1 VDV       0.068700
     14 H3          19.7380    -0.9400    69.4820 h1         1 VDV       0.059700
     15 H4          21.5910     0.5250    70.0970 h1         1 VDV       0.102700
     16 H8          22.6360    -1.0760    72.8480 ho         1 VDV       0.520000
     17 H9          23.9060     0.9590    71.5150 ho         1 VDV       0.528000
     18 H10         23.7290     1.4960    68.6640 ho         1 VDV       0.511000
     19 H11         21.1790    -2.7050    68.8750 ho         1 VDV       0.518000
     20 H12         19.5460     2.0450    67.5410 ho         1 VDV       0.451000
     21 C1          20.1210     0.1710    67.6850 c3         1 VDV       0.163600
     22 O6          19.7860     1.4390    68.2780 oh         1 VDV      -0.661000
     23 H2          19.2480    -0.2340    67.1560 h1         1 VDV       0.033200
     24 H1          20.9240     0.2950    66.9470 h1         1 VDV       0.033200
@<TRIPOS>BOND
     1     1     2 1   
     2     1     5 1   
     3     1     9 1   
     4     1    11 1   
     5     2     3 1   
     6     2     8 1   
     7     2    12 1   
     8     3     6 1   
     9     3     7 1   
    10     3    13 1   
    11     4     5 1   
    12     4    10 1   
    13     4    14 1   
    14     4    21 1   
    15     5     6 1   
    16     5    15 1   
    17     7    16 1   
    18     8    17 1   
    19     9    18 1   
    20    10    19 1   
    21    20    22 1   
    22    21    22 1   
    23    21    23 1   
    24    21    24 1   
@<TRIPOS>SUBSTRUCTURE
     1 VDV         1 TEMP              0 ****  ****    0 ROOT
