@<TRIPOS>MOLECULE
VDW
   36    35     1     0     0
SMALL
No Charge or Current Charge


@<TRIPOS>ATOM
      1 N1          20.6050     4.2760   -14.1330 nz         1 VDW      -0.993000
      2 CA1         19.7950     4.6090   -12.8710 c3         1 VDW      -0.064700
      3 C1          18.6220     3.6020   -12.5810 c          1 VDW       0.715000
      4 O11         18.3350     3.3900   -11.4120 o          1 VDW      -0.655000
      5 O12         18.1630     2.9720   -13.5230 o          1 VDW      -0.655000
      6 CB1         19.3010     6.0760   -12.9040 c3         1 VDW      -0.066400
      7 CG1         18.3700     6.4190   -14.0960 c3         1 VDW      -0.158400
      8 CD1         17.9060     7.8780   -14.0410 c          1 VDW       0.593100
      9 OE1         18.6460     8.8130   -14.3090 o          1 VDW      -0.555100
     10 N2          16.5860     8.0580   -13.6930 ns         1 VDW      -0.499900
     11 CA2         15.9020     9.3690   -13.5820 c3         1 VDW       0.040700
     12 C2          14.5970     9.2280   -12.7430 c          1 VDW       0.594100
     13 O2          14.1570     8.1430   -12.3740 o          1 VDW      -0.608100
     14 CB2         15.6360     9.9850   -14.9790 c3         1 VDW       0.062600
     15 SG2         15.3190    11.8140   -14.9700 sh         1 VDW      -0.403800
     16 N3          13.9610    10.4100   -12.4240 ns         1 VDW      -0.438900
     17 CA3         12.7210    10.5150   -11.6230 c3         1 VDW      -0.055000
     18 C3          12.1880    11.9710   -11.5740 c          1 VDW       0.711000
     19 O31         11.0980    12.2060   -12.0750 o          1 VDW      -0.723500
     20 O32         12.9000    12.8300   -11.0720 o          1 VDW      -0.723500
     21 HN13        21.3720     4.9380   -14.3300 hn         1 VDW       0.492333
     22 HN11        21.0430     3.3410   -14.0910 hn         1 VDW       0.492333
     23 HN12        20.0170     4.2480   -14.9810 hn         1 VDW       0.492333
     24 HA1         20.4700     4.5080   -12.0160 hx         1 VDW       0.082700
     25 HB13        20.1730     6.7420   -12.9240 hc         1 VDW       0.085200
     26 HB12        18.7760     6.2910   -11.9640 hc         1 VDW       0.085200
     27 HG13        17.5000     5.7520   -14.0700 hc         1 VDW       0.053200
     28 HG12        18.9230     6.2710   -15.0310 hc         1 VDW       0.053200
     29 HN2         16.0520     7.2240   -13.4740 hn         1 VDW       0.310500
     30 HA2         16.5650    10.0470   -13.0280 h1         1 VDW       0.069700
     31 HB23        14.7830     9.4780   -15.4490 h1         1 VDW       0.059700
     32 HB22        16.5120     9.8200   -15.6190 h1         1 VDW       0.059700
     33 HSG         15.1760    11.9490   -16.3110 hs         1 VDW       0.180800
     34 HN3         14.3770    11.2630   -12.7840 hn         1 VDW       0.296500
     35 HA31        11.9520     9.8650   -12.0600 h1         1 VDW       0.035200
     36 HA32        12.9240    10.1810   -10.5970 h1         1 VDW       0.035200
@<TRIPOS>BOND
     1     1     2 1   
     2     1    21 1   
     3     1    22 1   
     4     1    23 1   
     5     2     3 1   
     6     2     6 1   
     7     2    24 1   
     8     3     4 1   
     9     3     5 1   
    10     6     7 1   
    11     6    25 1   
    12     6    26 1   
    13     7     8 1   
    14     7    27 1   
    15     7    28 1   
    16     8     9 2   
    17     8    10 1   
    18    10    11 1   
    19    10    29 1   
    20    11    12 1   
    21    11    14 1   
    22    11    30 1   
    23    12    13 2   
    24    12    16 1   
    25    14    15 1   
    26    14    31 1   
    27    14    32 1   
    28    15    33 1   
    29    16    17 1   
    30    16    34 1   
    31    17    18 1   
    32    17    35 1   
    33    17    36 1   
    34    18    19 1   
    35    18    20 1   
@<TRIPOS>SUBSTRUCTURE
     1 VDW         1 TEMP              0 ****  ****    0 ROOT
