@<TRIPOS>MOLECULE
VDW
   36    35     1     0     0
SMALL
abcg2


@<TRIPOS>ATOM
      1 N1          20.8090     5.1690   -13.3930 nz         1 VDW      -0.993000
      2 CA1         19.6710     5.0030   -12.4390 c3         1 VDW      -0.064700
      3 C1          18.9010     3.7250   -12.8770 c          1 VDW       0.715000
      4 O11         17.8750     3.4730   -12.2410 o          1 VDW      -0.655000
      5 O12         19.4230     3.0880   -13.8170 o          1 VDW      -0.655000
      6 CB1         18.8100     6.2530   -12.3360 c3         1 VDW      -0.066400
      7 CG1         18.0140     6.5630   -13.5960 c3         1 VDW      -0.158400
      8 CD1         17.2700     7.8810   -13.5170 c          1 VDW       0.593100
      9 OE1         17.5500     8.7630   -12.7210 o          1 VDW      -0.555100
     10 N2          16.2910     8.0240   -14.4300 ns         1 VDW      -0.499900
     11 CA2         15.5240     9.2380   -14.5410 c3         1 VDW       0.040700
     12 C2          14.6130     9.4270   -13.3230 c          1 VDW       0.594100
     13 O2          14.0120     8.4800   -12.8400 o          1 VDW      -0.608100
     14 CB2         14.6750     9.1430   -15.8090 c3         1 VDW       0.062600
     15 SG2         13.6970    10.6640   -16.0420 sh         1 VDW      -0.403800
     16 N3          14.4720    10.6940   -12.9250 ns         1 VDW      -0.438900
     17 CA3         13.6260    11.0880   -11.8280 c3         1 VDW      -0.055000
     18 C3          14.2500    10.9470   -10.4170 c          1 VDW       0.711000
     19 O31         15.4090    10.5120   -10.3340 o          1 VDW      -0.723500
     20 O32         13.4930    11.3070    -9.4940 o          1 VDW      -0.723500
     21 HN13        21.7130     5.2630   -12.9340 hn         1 VDW       0.492333
     22 HN11        20.7850     4.2970   -13.9590 hn         1 VDW       0.492333
     23 HN12        20.7100     5.9620   -14.0260 hn         1 VDW       0.492333
     24 HA1         20.1190     4.8110   -11.4620 hx         1 VDW       0.082700
     25 HB13        19.4410     7.1010   -12.0650 hc         1 VDW       0.085200
     26 HB12        18.1270     6.1000   -11.5000 hc         1 VDW       0.085200
     27 HG13        17.3050     5.7590   -13.8040 hc         1 VDW       0.053200
     28 HG12        18.6610     6.6250   -14.4780 hc         1 VDW       0.053200
     29 HN2         16.0470     7.2410   -15.0160 hn         1 VDW       0.310500
     30 HA2         16.2040    10.0890   -14.6440 h1         1 VDW       0.069700
     31 HB23        14.0100     8.2800   -15.7470 h1         1 VDW       0.059700
     32 HB22        15.3330     9.0140   -16.6680 h1         1 VDW       0.059700
     33 HSG         13.4380    10.4710   -17.3400 hs         1 VDW       0.180800
     34 HN3         15.1020    11.3850   -13.2980 hn         1 VDW       0.296500
     35 HA31        13.3440    12.1310   -11.9840 h1         1 VDW       0.035200
     36 HA32        12.6990    10.5130   -11.8650 h1         1 VDW       0.035200
@<TRIPOS>BOND
     1     1     2 1   
     2     1    21 1   
     3     1    22 1   
     4     1    23 1   
     5     2     3 1   
     6     2     6 1   
     7     2    24 1   
     8     3     4 1   
     9     3     5 1   
    10     6     7 1   
    11     6    25 1   
    12     6    26 1   
    13     7     8 1   
    14     7    27 1   
    15     7    28 1   
    16     8     9 2   
    17     8    10 1   
    18    10    11 1   
    19    10    29 1   
    20    11    12 1   
    21    11    14 1   
    22    11    30 1   
    23    12    13 2   
    24    12    16 1   
    25    14    15 1   
    26    14    31 1   
    27    14    32 1   
    28    15    33 1   
    29    16    17 1   
    30    16    34 1   
    31    17    18 1   
    32    17    35 1   
    33    17    36 1   
    34    18    19 1   
    35    18    20 1   
@<TRIPOS>SUBSTRUCTURE
     1 VDW         1 TEMP              0 ****  ****    0 ROOT
