@<TRIPOS>MOLECULE
VDX
   74    76     1     0     0
SMALL
bcc


@<TRIPOS>ATOM
      1 O2          -0.7270     1.3830    -8.2470 oh         1 VDX      -0.599800
      2 O3          -2.7550     0.3870     7.4640 oh         1 VDX      -0.597800
      3 C1          -2.3290    -0.5870    -5.5070 c6         1 VDX       0.189300
      4 C2          -2.0910     0.0060    -6.8890 c6         1 VDX      -0.065400
      5 C3          -0.8760     0.9210    -6.9210 c6         1 VDX       0.153100
      6 C4           0.3650     0.1640    -6.4400 c6         1 VDX      -0.073200
      7 C5           0.1420    -0.4370    -5.0790 ce         1 VDX      -0.067200
      8 C6           0.9720    -0.1890    -4.0510 cf         1 VDX      -0.112000
      9 C7           0.7930    -0.6200    -2.6780 cf         1 VDX      -0.142000
     10 C8           1.6720    -0.4590    -1.6760 c2         1 VDX      -0.077400
     11 C9           3.0480     0.1350    -1.8020 c6         1 VDX      -0.042200
     12 C10         -1.0770    -1.2620    -4.9940 ce         1 VDX      -0.125200
     13 C11          3.2760     1.2720    -0.7990 c6         1 VDX      -0.071400
     14 C12          2.8920     0.8910     0.6310 c6         1 VDX      -0.063400
     15 C13          1.4690     0.3300     0.7150 c5         1 VDX      -0.035000
     16 C14          1.3830    -0.8660    -0.2650 c5         1 VDX      -0.036500
     17 C15          0.0770    -1.5540     0.0990 c5         1 VDX      -0.070400
     18 C16         -0.0050    -1.3860     1.6280 c5         1 VDX      -0.076400
     19 C17          1.0960    -0.3730     2.0430 c5         1 VDX      -0.052700
     20 C18          0.4360     1.4010     0.3580 c3         1 VDX      -0.079100
     21 C19         -1.1040    -2.5140    -4.5380 c2         1 VDX      -0.195000
     22 C20          0.6720     0.4930     3.2380 c3         1 VDX      -0.047700
     23 C21          1.7160     1.5430     3.6130 c3         1 VDX      -0.087100
     24 C22          0.3640    -0.3930     4.4560 c3         1 VDX      -0.078400
     25 C23         -0.4140     0.3110     5.5640 c3         1 VDX      -0.072400
     26 C24         -0.6410    -0.5980     6.7650 c3         1 VDX      -0.101400
     27 C25         -1.4610     0.0020     7.9170 c3         1 VDX       0.160800
     28 C26         -1.5870    -1.0350     9.0320 c3         1 VDX      -0.100100
     29 C27         -0.8170     1.2690     8.4670 c3         1 VDX      -0.100100
     30 O1          -2.7030     0.4710    -4.6450 oh         1 VDX      -0.593800
     31 HO2         -0.0030     2.0170    -8.2650 ho         1 VDX       0.403000
     32 HO3         -3.1900    -0.3950     7.1060 ho         1 VDX       0.399000
     33 H11         -3.1310    -1.3340    -5.5760 h1         1 VDX       0.036700
     34 H21         -2.9860     0.5450    -7.2140 hc         1 VDX       0.062200
     35 H22         -1.9410    -0.8170    -7.5950 hc         1 VDX       0.062200
     36 H31         -1.0460     1.7660    -6.2400 h1         1 VDX       0.049700
     37 H41          1.2320     0.8310    -6.4230 hc         1 VDX       0.051700
     38 H42          0.5770    -0.6300    -7.1660 hc         1 VDX       0.051700
     39 H61          1.8330     0.4360    -4.2680 ha         1 VDX       0.120000
     40 H71         -0.1540    -1.0950    -2.4470 ha         1 VDX       0.124000
     41 H91          3.7770    -0.6600    -1.5980 hc         1 VDX       0.046200
     42 H92          3.2600     0.4860    -2.8120 hc         1 VDX       0.046200
     43 H111         4.3280     1.5670    -0.8270 hc         1 VDX       0.040700
     44 H112         2.7090     2.1510    -1.1180 hc         1 VDX       0.040700
     45 H121         3.5870     0.1280     1.0010 hc         1 VDX       0.041200
     46 H122         3.0180     1.7600     1.2780 hc         1 VDX       0.041200
     47 H141         2.1990    -1.5460     0.0290 hc         1 VDX       0.052700
     48 H151         0.0610    -2.6000    -0.2120 hc         1 VDX       0.043700
     49 H152        -0.7720    -1.0700    -0.3880 hc         1 VDX       0.043700
     50 H161         0.1340    -2.3410     2.1370 hc         1 VDX       0.040700
     51 H162        -0.9920    -1.0220     1.9240 hc         1 VDX       0.040700
     52 H171         1.9850    -0.9390     2.3550 hc         1 VDX       0.043700
     53 H181         0.5760     1.7770    -0.6560 hc         1 VDX       0.035033
     54 H182        -0.5860     1.0220     0.4150 hc         1 VDX       0.035033
     55 H183         0.5010     2.2530     1.0360 hc         1 VDX       0.035033
     56 H191        -0.2110    -3.0180    -4.1910 ha         1 VDX       0.118500
     57 H192        -2.0260    -3.0820    -4.5140 ha         1 VDX       0.118500
     58 H201        -0.2560     1.0100     2.9660 hc         1 VDX       0.049700
     59 H211         2.7000     1.0870     3.7390 hc         1 VDX       0.032700
     60 H212         1.8090     2.3280     2.8630 hc         1 VDX       0.032700
     61 H213         1.4640     2.0370     4.5510 hc         1 VDX       0.032700
     62 H221        -0.2110    -1.2700     4.1480 hc         1 VDX       0.036200
     63 H222         1.3080    -0.7820     4.8580 hc         1 VDX       0.036200
     64 H231         0.1210     1.2100     5.8830 hc         1 VDX       0.046200
     65 H232        -1.3740     0.6520     5.1660 hc         1 VDX       0.046200
     66 H241        -1.1410    -1.5170     6.4320 hc         1 VDX       0.038700
     67 H242         0.3280    -0.9180     7.1610 hc         1 VDX       0.038700
     68 H261        -2.1760    -0.6480     9.8650 hc         1 VDX       0.041033
     69 H262        -2.0710    -1.9460     8.6720 hc         1 VDX       0.041033
     70 H263        -0.6060    -1.3180     9.4180 hc         1 VDX       0.041033
     71 H271         0.2110     1.0740     8.7750 hc         1 VDX       0.041033
     72 H272        -0.7960     2.0710     7.7280 hc         1 VDX       0.041033
     73 H273        -1.3630     1.6320     9.3390 hc         1 VDX       0.041033
     74 HO1         -2.7890     0.1170    -3.7540 ho         1 VDX       0.405000
@<TRIPOS>BOND
     1     1     5 1   
     2     1    31 1   
     3     2    27 1   
     4     2    32 1   
     5     3     4 1   
     6     3    12 1   
     7     3    30 1   
     8     3    33 1   
     9     4     5 1   
    10     4    34 1   
    11     4    35 1   
    12     5     6 1   
    13     5    36 1   
    14     6     7 1   
    15     6    37 1   
    16     6    38 1   
    17     7     8 2   
    18     7    12 1   
    19     8     9 1   
    20     8    39 1   
    21     9    10 2   
    22     9    40 1   
    23    10    11 1   
    24    10    16 1   
    25    11    13 1   
    26    11    41 1   
    27    11    42 1   
    28    12    21 2   
    29    13    14 1   
    30    13    43 1   
    31    13    44 1   
    32    14    15 1   
    33    14    45 1   
    34    14    46 1   
    35    15    16 1   
    36    15    19 1   
    37    15    20 1   
    38    16    17 1   
    39    16    47 1   
    40    17    18 1   
    41    17    48 1   
    42    17    49 1   
    43    18    19 1   
    44    18    50 1   
    45    18    51 1   
    46    19    22 1   
    47    19    52 1   
    48    20    53 1   
    49    20    54 1   
    50    20    55 1   
    51    21    56 1   
    52    21    57 1   
    53    22    23 1   
    54    22    24 1   
    55    22    58 1   
    56    23    59 1   
    57    23    60 1   
    58    23    61 1   
    59    24    25 1   
    60    24    62 1   
    61    24    63 1   
    62    25    26 1   
    63    25    64 1   
    64    25    65 1   
    65    26    27 1   
    66    26    66 1   
    67    26    67 1   
    68    27    28 1   
    69    27    29 1   
    70    28    68 1   
    71    28    69 1   
    72    28    70 1   
    73    29    71 1   
    74    29    72 1   
    75    29    73 1   
    76    30    74 1   
@<TRIPOS>SUBSTRUCTURE
     1 VDX         1 TEMP              0 ****  ****    0 ROOT
