@<TRIPOS>MOLECULE
VDX
   74    76     1     0     0
SMALL
No Charge or Current Charge


@<TRIPOS>ATOM
      1 O2          -0.5260     0.9980    -8.6330 oh         1 VDX      -0.662000
      2 O3          -2.4930     0.6890     7.8070 oh         1 VDX      -0.660000
      3 C1          -2.3250    -0.8110    -5.7920 c6         1 VDX       0.212500
      4 C2          -2.0150    -0.3380    -7.2330 c6         1 VDX      -0.065400
      5 C3          -0.8170     0.6420    -7.2760 c6         1 VDX       0.176300
      6 C4           0.4310     0.0070    -6.6140 c6         1 VDX      -0.073200
      7 C5           0.1200    -0.4580    -5.1850 ce         1 VDX      -0.067200
      8 C6           0.9260    -0.1040    -4.1400 cf         1 VDX      -0.162000
      9 C7           0.7190    -0.4690    -2.7360 cf         1 VDX      -0.192000
     10 C8           1.5810    -0.2860    -1.6940 c2         1 VDX      -0.077400
     11 C9           2.9910     0.3040    -1.8340 c6         1 VDX      -0.042200
     12 C10         -1.0590    -1.3430    -5.1020 ce         1 VDX      -0.125200
     13 C11          3.2490     1.4470    -0.8200 c6         1 VDX      -0.071400
     14 C12          2.8470     1.0540     0.6300 c6         1 VDX      -0.063400
     15 C13          1.3770     0.5170     0.7120 c5         1 VDX      -0.035000
     16 C14          1.2710    -0.7180    -0.2480 c5         1 VDX      -0.036500
     17 C15         -0.1640    -1.2310     0.0350 c5         1 VDX      -0.070400
     18 C16         -0.2500    -1.1190     1.5890 c5         1 VDX      -0.076400
     19 C17          0.9830    -0.2420     2.0470 c5         1 VDX      -0.052700
     20 C18          0.3970     1.6970     0.3840 c3         1 VDX      -0.079100
     21 C19         -1.0330    -2.5560    -4.5060 c2         1 VDX      -0.295000
     22 C20          0.6980     0.5790     3.3610 c3         1 VDX      -0.047700
     23 C21          1.8410     1.5530     3.7500 c3         1 VDX      -0.087100
     24 C22          0.3400    -0.3680     4.5530 c3         1 VDX      -0.078400
     25 C23         -0.2220     0.3230     5.8220 c3         1 VDX      -0.072400
     26 C24         -0.7190    -0.6940     6.8850 c3         1 VDX      -0.101400
     27 C25         -1.3530    -0.0890     8.1750 c3         1 VDX       0.184000
     28 C26         -1.8450    -1.2220     9.1050 c3         1 VDX      -0.100100
     29 C27         -0.3730     0.8340     8.9380 c3         1 VDX      -0.100100
     30 O1          -2.8680     0.2560    -5.0140 oh         1 VDX      -0.656000
     31 HO2          0.1860     1.6730    -8.6010 ho         1 VDX       0.442000
     32 HO3         -3.0630     0.1130     7.2550 ho         1 VDX       0.438000
     33 H11         -3.0630    -1.6240    -5.8560 h1         1 VDX       0.036700
     34 H21         -2.9050     0.1330    -7.6710 hc         1 VDX       0.062200
     35 H22         -1.7910    -1.2160    -7.8540 hc         1 VDX       0.062200
     36 H31         -1.0880     1.5430    -6.7050 h1         1 VDX       0.049700
     37 H41          1.2580     0.7300    -6.6150 hc         1 VDX       0.051700
     38 H42          0.7710    -0.8550    -7.2050 hc         1 VDX       0.051700
     39 H61          1.7770     0.5310    -4.3750 ha         1 VDX       0.170000
     40 H71         -0.2420    -0.9370    -2.5350 ha         1 VDX       0.174000
     41 H91          3.7200    -0.4990    -1.6570 hc         1 VDX       0.046200
     42 H92          3.2030     0.6720    -2.8420 hc         1 VDX       0.046200
     43 H111         4.3110     1.7250    -0.8440 hc         1 VDX       0.040700
     44 H112         2.6990     2.3440    -1.1330 hc         1 VDX       0.040700
     45 H121         3.5450     0.2890     0.9990 hc         1 VDX       0.041200
     46 H122         2.9890     1.9310     1.2680 hc         1 VDX       0.041200
     47 H141         1.9930    -1.4950     0.0340 hc         1 VDX       0.052700
     48 H151        -0.3140    -2.2580    -0.3170 hc         1 VDX       0.043700
     49 H152        -0.9370    -0.6130    -0.4370 hc         1 VDX       0.043700
     50 H161        -0.2190    -2.1100     2.0560 hc         1 VDX       0.040700
     51 H162        -1.2060    -0.6680     1.8820 hc         1 VDX       0.040700
     52 H171         1.8060    -0.9170     2.3160 hc         1 VDX       0.043700
     53 H181         0.4500     1.9990    -0.6680 hc         1 VDX       0.035033
     54 H182        -0.6490     1.4470     0.5890 hc         1 VDX       0.035033
     55 H183         0.6270     2.5820     0.9870 hc         1 VDX       0.035033
     56 H191        -0.1260    -2.9440    -4.0420 ha         1 VDX       0.168500
     57 H192        -1.9110    -3.2020    -4.4720 ha         1 VDX       0.168500
     58 H201        -0.1890     1.2000     3.1800 hc         1 VDX       0.049700
     59 H211         2.8100     1.0400     3.7570 hc         1 VDX       0.032700
     60 H212         1.8860     2.3940     3.0520 hc         1 VDX       0.032700
     61 H213         1.6860     2.0010     4.7360 hc         1 VDX       0.032700
     62 H221        -0.4130    -1.0930     4.2250 hc         1 VDX       0.036200
     63 H222         1.2280    -0.9520     4.8240 hc         1 VDX       0.036200
     64 H231         0.5550     0.9490     6.2720 hc         1 VDX       0.046200
     65 H232        -1.0470     0.9860     5.5320 hc         1 VDX       0.046200
     66 H241        -1.4510    -1.3610     6.4120 hc         1 VDX       0.038700
     67 H242         0.1270    -1.3300     7.1750 hc         1 VDX       0.038700
     68 H261        -2.3340    -0.8140     9.9970 hc         1 VDX       0.041033
     69 H262        -2.5640    -1.8720     8.5910 hc         1 VDX       0.041033
     70 H263        -1.0040    -1.8440     9.4360 hc         1 VDX       0.041033
     71 H271         0.5540     0.3010     9.1800 hc         1 VDX       0.041033
     72 H272        -0.1150     1.7210     8.3480 hc         1 VDX       0.041033
     73 H273        -0.8180     1.1820     9.8780 hc         1 VDX       0.041033
     74 HO1         -2.7570    -0.0170    -4.0780 ho         1 VDX       0.444000
@<TRIPOS>BOND
     1     1     5 1   
     2     1    31 1   
     3     2    27 1   
     4     2    32 1   
     5     3     4 1   
     6     3    12 1   
     7     3    30 1   
     8     3    33 1   
     9     4     5 1   
    10     4    34 1   
    11     4    35 1   
    12     5     6 1   
    13     5    36 1   
    14     6     7 1   
    15     6    37 1   
    16     6    38 1   
    17     7     8 2   
    18     7    12 1   
    19     8     9 1   
    20     8    39 1   
    21     9    10 2   
    22     9    40 1   
    23    10    11 1   
    24    10    16 1   
    25    11    13 1   
    26    11    41 1   
    27    11    42 1   
    28    12    21 2   
    29    13    14 1   
    30    13    43 1   
    31    13    44 1   
    32    14    15 1   
    33    14    45 1   
    34    14    46 1   
    35    15    16 1   
    36    15    19 1   
    37    15    20 1   
    38    16    17 1   
    39    16    47 1   
    40    17    18 1   
    41    17    48 1   
    42    17    49 1   
    43    18    19 1   
    44    18    50 1   
    45    18    51 1   
    46    19    22 1   
    47    19    52 1   
    48    20    53 1   
    49    20    54 1   
    50    20    55 1   
    51    21    56 1   
    52    21    57 1   
    53    22    23 1   
    54    22    24 1   
    55    22    58 1   
    56    23    59 1   
    57    23    60 1   
    58    23    61 1   
    59    24    25 1   
    60    24    62 1   
    61    24    63 1   
    62    25    26 1   
    63    25    64 1   
    64    25    65 1   
    65    26    27 1   
    66    26    66 1   
    67    26    67 1   
    68    27    28 1   
    69    27    29 1   
    70    28    68 1   
    71    28    69 1   
    72    28    70 1   
    73    29    71 1   
    74    29    72 1   
    75    29    73 1   
    76    30    74 1   
@<TRIPOS>SUBSTRUCTURE
     1 VDX         1 TEMP              0 ****  ****    0 ROOT
