@<TRIPOS>MOLECULE
VDY
   73    75     1     0     0
SMALL
abcg2


@<TRIPOS>ATOM
      1 O1          -0.9360     1.4180    -8.4150 oh         1 VDY      -0.659000
      2 O2          -2.6630     0.3750     7.3400 oh         1 VDY      -0.660000
      3 C1          -2.6200    -0.3560    -5.5930 c6         1 VDY      -0.039200
      4 C2          -2.3870     0.1750    -7.0070 c6         1 VDY      -0.070400
      5 C3          -1.0910     0.9650    -7.0870 c6         1 VDY       0.173300
      6 C4           0.0860     0.0920    -6.6410 c6         1 VDY      -0.074200
      7 C5          -0.1420    -0.4540    -5.2560 ce         1 VDY      -0.077200
      8 C6           0.7460    -0.2460    -4.2670 cf         1 VDY      -0.164000
      9 C7           0.5930    -0.6310    -2.8780 cf         1 VDY      -0.191000
     10 C8           1.5050    -0.4730    -1.9040 c2         1 VDY      -0.079400
     11 C9           2.8850     0.1010    -2.0720 c6         1 VDY      -0.041200
     12 C10         -1.4370    -1.1450    -5.0950 ce         1 VDY      -0.079200
     13 C11          3.1460     1.2460    -1.0870 c6         1 VDY      -0.071400
     14 C12          2.8000     0.8820     0.3580 c6         1 VDY      -0.063400
     15 C13          1.3750     0.3360     0.4890 c5         1 VDY      -0.035000
     16 C14          1.2490    -0.8640    -0.4830 c5         1 VDY      -0.036500
     17 C15         -0.0520    -1.5370    -0.0780 c5         1 VDY      -0.071400
     18 C16         -0.0840    -1.3660     1.4530 c5         1 VDY      -0.076400
     19 C17          1.0380    -0.3600     1.8300 c5         1 VDY      -0.053700
     20 C18          0.3420     1.4160     0.1590 c3         1 VDY      -0.079100
     21 C19         -1.5530    -2.3780    -4.6040 c2         1 VDY      -0.309000
     22 C20          0.6580     0.5090     3.0370 c3         1 VDY      -0.047700
     23 C21          1.7170     1.5560     3.3770 c3         1 VDY      -0.087100
     24 C22          0.3870    -0.3760     4.2630 c3         1 VDY      -0.078400
     25 C23         -0.3590     0.3240     5.3960 c3         1 VDY      -0.072400
     26 C24         -0.5590    -0.5950     6.5940 c3         1 VDY      -0.102400
     27 C25         -1.3590    -0.0060     7.7660 c3         1 VDY       0.184000
     28 C26         -1.4580    -1.0530     8.8760 c3         1 VDY      -0.100100
     29 C27         -0.7100     1.2600     8.3120 c3         1 VDY      -0.100100
     30 HO1         -0.1440     1.9640    -8.4580 ho         1 VDY       0.441000
     31 HO2         -3.0980    -0.4040     6.9780 ho         1 VDY       0.438000
     32 H11         -3.5240    -0.9660    -5.5620 hc         1 VDY       0.048700
     33 H12         -2.7860     0.4920    -4.9180 hc         1 VDY       0.048700
     34 H21         -3.2280     0.8030    -7.3090 hc         1 VDY       0.055200
     35 H22         -2.3400    -0.6650    -7.7090 hc         1 VDY       0.055200
     36 H31         -1.1600     1.8180    -6.3950 h1         1 VDY       0.030700
     37 H41          1.0160     0.6650    -6.6720 hc         1 VDY       0.052200
     38 H42          0.1850    -0.7330    -7.3580 hc         1 VDY       0.052200
     39 H61          1.6480     0.2940    -4.5370 ha         1 VDY       0.167000
     40 H71         -0.3580    -1.0740    -2.6080 ha         1 VDY       0.178000
     41 H91          3.6100    -0.6990    -1.8770 hc         1 VDY       0.045700
     42 H92          3.0750     0.4410    -3.0900 hc         1 VDY       0.045700
     43 H111         4.1980     1.5360    -1.1470 hc         1 VDY       0.040200
     44 H112         2.5740     2.1240    -1.3990 hc         1 VDY       0.040200
     45 H121         3.4980     0.1160     0.7140 hc         1 VDY       0.040700
     46 H122         2.9550     1.7560     0.9930 hc         1 VDY       0.040700
     47 H141         2.0660    -1.5500    -0.2050 hc         1 VDY       0.052700
     48 H151        -0.0880    -2.5830    -0.3870 hc         1 VDY       0.045200
     49 H152        -0.9110    -1.0450    -0.5390 hc         1 VDY       0.045200
     50 H161         0.0660    -2.3210     1.9580 hc         1 VDY       0.040700
     51 H162        -1.0580    -0.9950     1.7800 hc         1 VDY       0.040700
     52 H171         1.9310    -0.9330     2.1150 hc         1 VDY       0.043700
     53 H181         0.4510     1.7840    -0.8610 hc         1 VDY       0.034700
     54 H182        -0.6810     1.0510     0.2570 hc         1 VDY       0.034700
     55 H183         0.4410     2.2720     0.8290 hc         1 VDY       0.034700
     56 H191        -0.6930    -2.9480    -4.2770 ha         1 VDY       0.166500
     57 H192        -2.5200    -2.8620    -4.5200 ha         1 VDY       0.166500
     58 H201        -0.2770     1.0300     2.7940 hc         1 VDY       0.048700
     59 H211         2.7030     1.0950     3.4710 hc         1 VDY       0.032367
     60 H212         1.7900     2.3410     2.6250 hc         1 VDY       0.032367
     61 H213         1.4970     2.0490     4.3240 hc         1 VDY       0.032367
     62 H221        -0.1950    -1.2540     3.9710 hc         1 VDY       0.036700
     63 H222         1.3430    -0.7640     4.6370 hc         1 VDY       0.036700
     64 H231         0.1860     1.2180     5.7080 hc         1 VDY       0.045700
     65 H232        -1.3280     0.6700     5.0260 hc         1 VDY       0.045700
     66 H241        -1.0630    -1.5130     6.2640 hc         1 VDY       0.038700
     67 H242         0.4190    -0.9150     6.9690 hc         1 VDY       0.038700
     68 H261        -2.0380    -0.6760     9.7210 hc         1 VDY       0.040867
     69 H262        -1.9420    -1.9650     8.5160 hc         1 VDY       0.040867
     70 H263        -0.4700    -1.3310     9.2440 hc         1 VDY       0.040867
     71 H271         0.3230     1.0670     8.6020 hc         1 VDY       0.040867
     72 H272        -0.7060     2.0650     7.5770 hc         1 VDY       0.040867
     73 H273        -1.2440     1.6160     9.1960 hc         1 VDY       0.040867
@<TRIPOS>BOND
     1     1     5 1   
     2     1    30 1   
     3     2    27 1   
     4     2    31 1   
     5     3     4 1   
     6     3    12 1   
     7     3    32 1   
     8     3    33 1   
     9     4     5 1   
    10     4    34 1   
    11     4    35 1   
    12     5     6 1   
    13     5    36 1   
    14     6     7 1   
    15     6    37 1   
    16     6    38 1   
    17     7     8 2   
    18     7    12 1   
    19     8     9 1   
    20     8    39 1   
    21     9    10 2   
    22     9    40 1   
    23    10    11 1   
    24    10    16 1   
    25    11    13 1   
    26    11    41 1   
    27    11    42 1   
    28    12    21 2   
    29    13    14 1   
    30    13    43 1   
    31    13    44 1   
    32    14    15 1   
    33    14    45 1   
    34    14    46 1   
    35    15    16 1   
    36    15    19 1   
    37    15    20 1   
    38    16    17 1   
    39    16    47 1   
    40    17    18 1   
    41    17    48 1   
    42    17    49 1   
    43    18    19 1   
    44    18    50 1   
    45    18    51 1   
    46    19    22 1   
    47    19    52 1   
    48    20    53 1   
    49    20    54 1   
    50    20    55 1   
    51    21    56 1   
    52    21    57 1   
    53    22    23 1   
    54    22    24 1   
    55    22    58 1   
    56    23    59 1   
    57    23    60 1   
    58    23    61 1   
    59    24    25 1   
    60    24    62 1   
    61    24    63 1   
    62    25    26 1   
    63    25    64 1   
    64    25    65 1   
    65    26    27 1   
    66    26    66 1   
    67    26    67 1   
    68    27    28 1   
    69    27    29 1   
    70    28    68 1   
    71    28    69 1   
    72    28    70 1   
    73    29    71 1   
    74    29    72 1   
    75    29    73 1   
@<TRIPOS>SUBSTRUCTURE
     1 VDY         1 TEMP              0 ****  ****    0 ROOT
