@<TRIPOS>MOLECULE
VDY
   73    75     1     0     0
SMALL
No Charge or Current Charge


@<TRIPOS>ATOM
      1 O1          -0.8740     1.0490    -8.7950 oh         1 VDY      -0.659000
      2 O2          -2.3890     0.7380     7.6820 oh         1 VDY      -0.660000
      3 C1          -2.6070    -0.6680    -5.8690 c6         1 VDY      -0.039200
      4 C2          -2.3480    -0.2330    -7.3310 c6         1 VDY      -0.070400
      5 C3          -1.1210     0.7070    -7.4270 c6         1 VDY       0.173300
      6 C4           0.1320     0.0380    -6.8070 c6         1 VDY      -0.074200
      7 C5          -0.1420    -0.4220    -5.3680 ce         1 VDY      -0.077200
      8 C6           0.7070    -0.0940    -4.3490 cf         1 VDY      -0.164000
      9 C7           0.5300    -0.4590    -2.9410 cf         1 VDY      -0.191000
     10 C8           1.4220    -0.2970    -1.9220 c2         1 VDY      -0.079400
     11 C9           2.8400     0.2650    -2.0970 c6         1 VDY      -0.041200
     12 C10         -1.3420    -1.2690    -5.2460 ce         1 VDY      -0.079200
     13 C11          3.1460     1.4000    -1.0870 c6         1 VDY      -0.071400
     14 C12          2.7730     1.0120     0.3720 c6         1 VDY      -0.063400
     15 C13          1.2960     0.5040     0.4900 c5         1 VDY      -0.035000
     16 C14          1.1400    -0.7260    -0.4700 c5         1 VDY      -0.036500
     17 C15         -0.2970    -1.2110    -0.1510 c5         1 VDY      -0.071400
     18 C16         -0.3410    -1.1010     1.4050 c5         1 VDY      -0.076400
     19 C17          0.9200    -0.2490     1.8330 c5         1 VDY      -0.053700
     20 C18          0.3310     1.7040     0.1890 c3         1 VDY      -0.079100
     21 C19         -1.3370    -2.4950    -4.6830 c2         1 VDY      -0.309000
     22 C20          0.6850     0.5740     3.1550 c3         1 VDY      -0.047700
     23 C21          1.8570     1.5240     3.5170 c3         1 VDY      -0.087100
     24 C22          0.3380    -0.3680     4.3540 c3         1 VDY      -0.078400
     25 C23         -0.1770     0.3310     5.6380 c3         1 VDY      -0.072400
     26 C24         -0.6680    -0.6780     6.7120 c3         1 VDY      -0.102400
     27 C25         -1.2560    -0.0640     8.0180 c3         1 VDY       0.184000
     28 C26         -1.7470    -1.1890     8.9590 c3         1 VDY      -0.100100
     29 C27         -0.2380     0.8370     8.7580 c3         1 VDY      -0.100100
     30 HO1         -0.1410     1.7030    -8.7930 ho         1 VDY       0.441000
     31 HO2         -2.9820     0.1760     7.1400 ho         1 VDY       0.438000
     32 H11         -3.4350    -1.3900    -5.8410 hc         1 VDY       0.048700
     33 H12         -2.9290     0.1970    -5.2730 hc         1 VDY       0.048700
     34 H21         -3.2390     0.2690    -7.7320 hc         1 VDY       0.055200
     35 H22         -2.1820    -1.1240    -7.9530 hc         1 VDY       0.055200
     36 H31         -1.3430     1.6190    -6.8530 h1         1 VDY       0.030700
     37 H41          0.9770     0.7390    -6.8360 hc         1 VDY       0.052200
     38 H42          0.4290    -0.8310    -7.4110 hc         1 VDY       0.052200
     39 H61          1.5690     0.5160    -4.6090 ha         1 VDY       0.167000
     40 H71         -0.4350    -0.9070    -2.7170 ha         1 VDY       0.178000
     41 H91          3.5570    -0.5520    -1.9400 hc         1 VDY       0.045700
     42 H92          3.0330     0.6320    -3.1100 hc         1 VDY       0.045700
     43 H111         4.2130     1.6570    -1.1380 hc         1 VDY       0.040200
     44 H112         2.6060     2.3090    -1.3840 hc         1 VDY       0.040200
     45 H121         3.4650     0.2330     0.7220 hc         1 VDY       0.040700
     46 H122         2.9490     1.8850     1.0070 hc         1 VDY       0.040700
     47 H141         1.8540    -1.5180    -0.2070 hc         1 VDY       0.052700
     48 H151        -0.4760    -2.2340    -0.5010 hc         1 VDY       0.045200
     49 H152        -1.0690    -0.5770    -0.6010 hc         1 VDY       0.045200
     50 H161        -0.3180    -2.0930     1.8690 hc         1 VDY       0.040700
     51 H162        -1.2800    -0.6320     1.7230 hc         1 VDY       0.040700
     52 H171         1.7360    -0.9410     2.0800 hc         1 VDY       0.043700
     53 H181         0.3630     2.0070    -0.8630 hc         1 VDY       0.034700
     54 H182        -0.7150     1.4750     0.4200 hc         1 VDY       0.034700
     55 H183         0.5940     2.5830     0.7880 hc         1 VDY       0.034700
     56 H191        -0.4260    -2.9260    -4.2670 ha         1 VDY       0.166500
     57 H192        -2.2370    -3.1080    -4.6240 ha         1 VDY       0.166500
     58 H201        -0.1930     1.2130     2.9970 hc         1 VDY       0.048700
     59 H211         2.8150     0.9920     3.4990 hc         1 VDY       0.032367
     60 H212         1.9010     2.3660     2.8190 hc         1 VDY       0.032367
     61 H213         1.7360     1.9730     4.5070 hc         1 VDY       0.032367
     62 H221        -0.4370    -1.0770     4.0450 hc         1 VDY       0.036700
     63 H222         1.2210    -0.9710     4.6020 hc         1 VDY       0.036700
     64 H231         0.6230     0.9400     6.0700 hc         1 VDY       0.045700
     65 H232        -0.9950     1.0110     5.3710 hc         1 VDY       0.045700
     66 H241        -1.4250    -1.3290     6.2570 hc         1 VDY       0.038700
     67 H242         0.1720    -1.3320     6.9790 hc         1 VDY       0.038700
     68 H261        -2.2050    -0.7730     9.8640 hc         1 VDY       0.040867
     69 H262        -2.4920    -1.8230     8.4630 hc         1 VDY       0.040867
     70 H263        -0.9110    -1.8290     9.2670 hc         1 VDY       0.040867
     71 H271         0.6840     0.2850     8.9750 hc         1 VDY       0.040867
     72 H272         0.0230     1.7200     8.1640 hc         1 VDY       0.040867
     73 H273        -0.6520     1.1920     9.7100 hc         1 VDY       0.040867
@<TRIPOS>BOND
     1     1     5 1   
     2     1    30 1   
     3     2    27 1   
     4     2    31 1   
     5     3     4 1   
     6     3    12 1   
     7     3    32 1   
     8     3    33 1   
     9     4     5 1   
    10     4    34 1   
    11     4    35 1   
    12     5     6 1   
    13     5    36 1   
    14     6     7 1   
    15     6    37 1   
    16     6    38 1   
    17     7     8 2   
    18     7    12 1   
    19     8     9 1   
    20     8    39 1   
    21     9    10 2   
    22     9    40 1   
    23    10    11 1   
    24    10    16 1   
    25    11    13 1   
    26    11    41 1   
    27    11    42 1   
    28    12    21 2   
    29    13    14 1   
    30    13    43 1   
    31    13    44 1   
    32    14    15 1   
    33    14    45 1   
    34    14    46 1   
    35    15    16 1   
    36    15    19 1   
    37    15    20 1   
    38    16    17 1   
    39    16    47 1   
    40    17    18 1   
    41    17    48 1   
    42    17    49 1   
    43    18    19 1   
    44    18    50 1   
    45    18    51 1   
    46    19    22 1   
    47    19    52 1   
    48    20    53 1   
    49    20    54 1   
    50    20    55 1   
    51    21    56 1   
    52    21    57 1   
    53    22    23 1   
    54    22    24 1   
    55    22    58 1   
    56    23    59 1   
    57    23    60 1   
    58    23    61 1   
    59    24    25 1   
    60    24    62 1   
    61    24    63 1   
    62    25    26 1   
    63    25    64 1   
    64    25    65 1   
    65    26    27 1   
    66    26    66 1   
    67    26    67 1   
    68    27    28 1   
    69    27    29 1   
    70    28    68 1   
    71    28    69 1   
    72    28    70 1   
    73    29    71 1   
    74    29    72 1   
    75    29    73 1   
@<TRIPOS>SUBSTRUCTURE
     1 VDY         1 TEMP              0 ****  ****    0 ROOT
