@<TRIPOS>MOLECULE
VDZ
   74    76     1     0     0
SMALL
No Charge or Current Charge


@<TRIPOS>ATOM
      1 O1          -5.1980     1.7250     1.6540 oh         1 VDZ      -0.653000
      2 C1          -6.0600     0.5870     1.5910 c6         1 VDZ       0.211500
      3 C2          -7.2640     0.9310     0.7190 c2         1 VDZ      -0.199400
      4 C28         -8.4880     1.1230     1.2560 c2         1 VDZ      -0.298000
      5 C3          -6.9320     1.0260    -0.7770 c6         1 VDZ       0.211500
      6 O2          -8.1030     1.2840    -1.5580 oh         1 VDZ      -0.653000
      7 C4          -6.2470    -0.2690    -1.2710 c6         1 VDZ      -0.032200
      8 C10         -5.2940    -0.6600     1.0690 c6         1 VDZ      -0.032200
      9 C5          -5.0110    -0.6080    -0.4390 c2         1 VDZ      -0.105400
     10 C6          -3.8130    -0.8490    -1.0310 ce         1 VDZ      -0.162000
     11 C7          -2.5600    -1.2420    -0.3530 ce         1 VDZ      -0.185000
     12 C8          -1.3200    -1.2600    -0.9220 c2         1 VDZ      -0.083400
     13 C9          -0.9990    -0.8920    -2.3750 c6         1 VDZ      -0.041200
     14 C11          0.2960    -0.0510    -2.5100 c6         1 VDZ      -0.071400
     15 C14         -0.1300    -1.8000    -0.0960 c5         1 VDZ      -0.034500
     16 C13          1.0600    -0.7780    -0.1450 c5         1 VDZ      -0.037000
     17 C12          1.4660    -0.6010    -1.6480 c6         1 VDZ      -0.062400
     18 C18          0.7420     0.6320     0.4660 c3         1 VDZ      -0.079100
     19 C15         -0.3300    -1.9900     1.4320 c5         1 VDZ      -0.072400
     20 C16          1.1370    -2.1060     1.9500 c5         1 VDZ      -0.075400
     21 C17          2.0690    -1.6060     0.7510 c5         1 VDZ      -0.054700
     22 C20          3.3980    -0.9410     1.2700 c3         1 VDZ      -0.045700
     23 C21          4.2300    -1.9440     2.1160 c3         1 VDZ      -0.090100
     24 C22          4.2930    -0.2930     0.1450 c3         1 VDZ      -0.075400
     25 C23          5.7060     0.2730     0.5290 c3         1 VDZ      -0.070400
     26 C24          6.3990     1.0060    -0.6510 c3         1 VDZ      -0.103400
     27 C25          7.7850     1.6480    -0.3450 c3         1 VDZ       0.184000
     28 C26          8.8230     0.6070     0.1410 c3         1 VDZ      -0.100600
     29 C27          8.3180     2.3820    -1.5980 c3         1 VDZ      -0.100600
     30 O3           7.6250     2.6220     0.6870 oh         1 VDZ      -0.660000
     31 HO1         -5.7720     2.4790     1.9080 ho         1 VDZ       0.441500
     32 H1          -6.4130     0.3510     2.6070 h1         1 VDZ       0.042200
     33 H281        -8.6570     1.0390     2.3310 ha         1 VDZ       0.167500
     34 H282        -9.3690     1.3580     0.6590 ha         1 VDZ       0.167500
     35 H3          -6.2190     1.8530    -0.9170 h1         1 VDZ       0.042200
     36 HO2         -8.4820     2.1160    -1.2030 ho         1 VDZ       0.441500
     37 H41         -6.9580    -1.1050    -1.2140 hc         1 VDZ       0.058450
     38 H42         -5.9840    -0.1610    -2.3320 hc         1 VDZ       0.058450
     39 H101        -4.3810    -0.7750     1.6620 hc         1 VDZ       0.058450
     40 H102        -5.8990    -1.5530     1.2760 hc         1 VDZ       0.058450
     41 H6          -3.7640    -0.7780    -2.1160 ha         1 VDZ       0.168000
     42 H7          -2.6880    -1.5730     0.6720 ha         1 VDZ       0.175000
     43 H91         -0.8850    -1.8200    -2.9510 hc         1 VDZ       0.045200
     44 H92         -1.8150    -0.3350    -2.8500 hc         1 VDZ       0.045200
     45 H111         0.6010    -0.0180    -3.5650 hc         1 VDZ       0.039700
     46 H112         0.0850     0.9890    -2.2310 hc         1 VDZ       0.039700
     47 H14          0.1680    -2.7600    -0.5400 hc         1 VDZ       0.051700
     48 H121         1.7910    -1.5670    -2.0580 hc         1 VDZ       0.039200
     49 H122         2.3160     0.0770    -1.7660 hc         1 VDZ       0.039200
     50 H181         0.6480     0.6080     1.5570 hc         1 VDZ       0.035367
     51 H182         1.5380     1.3510     0.2390 hc         1 VDZ       0.035367
     52 H183        -0.1940     1.0490     0.0760 hc         1 VDZ       0.035367
     53 H151        -0.8390    -1.1400     1.9010 hc         1 VDZ       0.045200
     54 H152        -0.9170    -2.8860     1.6660 hc         1 VDZ       0.045200
     55 H161         1.2370    -1.5460     2.9010 hc         1 VDZ       0.040700
     56 H162         1.3750    -3.1470     2.1980 hc         1 VDZ       0.040700
     57 H17          2.4010    -2.4820     0.1790 hc         1 VDZ       0.042700
     58 H20          3.1200    -0.1250     1.9490 hc         1 VDZ       0.047700
     59 H211         3.6320    -2.3900     2.9180 hc         1 VDZ       0.033033
     60 H212         4.6180    -2.7550     1.4870 hc         1 VDZ       0.033033
     61 H213         5.0780    -1.4460     2.5990 hc         1 VDZ       0.033033
     62 H221         4.4180    -1.0170    -0.6690 hc         1 VDZ       0.036700
     63 H222         3.7370     0.5550    -0.2630 hc         1 VDZ       0.036700
     64 H231         5.5950     0.9580     1.3790 hc         1 VDZ       0.046200
     65 H232         6.3420    -0.5550     0.8590 hc         1 VDZ       0.046200
     66 H241         6.5170     0.2940    -1.4770 hc         1 VDZ       0.039200
     67 H242         5.7210     1.7870    -1.0190 hc         1 VDZ       0.039200
     68 H261         8.9300    -0.2040    -0.5890 hc         1 VDZ       0.041033
     69 H262         9.8070     1.0730     0.2760 hc         1 VDZ       0.041033
     70 H263         8.5320     0.1690     1.1020 hc         1 VDZ       0.041033
     71 H271         7.6090     3.1450    -1.9410 hc         1 VDZ       0.041033
     72 H272         9.2740     2.8780    -1.3860 hc         1 VDZ       0.041033
     73 H273         8.4790     1.6750    -2.4210 hc         1 VDZ       0.041033
     74 HO3          6.9070     3.2250     0.3970 ho         1 VDZ       0.438000
@<TRIPOS>BOND
     1     1     2 1   
     2     1    31 1   
     3     2     3 1   
     4     2     8 1   
     5     2    32 1   
     6     3     4 2   
     7     3     5 1   
     8     4    33 1   
     9     4    34 1   
    10     5     6 1   
    11     5     7 1   
    12     5    35 1   
    13     6    36 1   
    14     7     9 1   
    15     7    37 1   
    16     7    38 1   
    17     8     9 1   
    18     8    39 1   
    19     8    40 1   
    20     9    10 2   
    21    10    11 1   
    22    10    41 1   
    23    11    12 2   
    24    11    42 1   
    25    12    13 1   
    26    12    15 1   
    27    13    14 1   
    28    13    43 1   
    29    13    44 1   
    30    14    17 1   
    31    14    45 1   
    32    14    46 1   
    33    15    16 1   
    34    15    19 1   
    35    15    47 1   
    36    16    17 1   
    37    16    18 1   
    38    16    21 1   
    39    17    48 1   
    40    17    49 1   
    41    18    50 1   
    42    18    51 1   
    43    18    52 1   
    44    19    20 1   
    45    19    53 1   
    46    19    54 1   
    47    20    21 1   
    48    20    55 1   
    49    20    56 1   
    50    21    22 1   
    51    21    57 1   
    52    22    23 1   
    53    22    24 1   
    54    22    58 1   
    55    23    59 1   
    56    23    60 1   
    57    23    61 1   
    58    24    25 1   
    59    24    62 1   
    60    24    63 1   
    61    25    26 1   
    62    25    64 1   
    63    25    65 1   
    64    26    27 1   
    65    26    66 1   
    66    26    67 1   
    67    27    28 1   
    68    27    29 1   
    69    27    30 1   
    70    28    68 1   
    71    28    69 1   
    72    28    70 1   
    73    29    71 1   
    74    29    72 1   
    75    29    73 1   
    76    30    74 1   
@<TRIPOS>SUBSTRUCTURE
     1 VDZ         1 TEMP              0 ****  ****    0 ROOT
