@<TRIPOS>MOLECULE
VDZ
   74    76     1     0     0
SMALL
bcc


@<TRIPOS>ATOM
      1 O1          -4.9650     1.3110     1.8090 oh         1 VDZ      -0.590800
      2 C1          -5.9760     0.3460     1.5950 c6         1 VDZ       0.188300
      3 C2          -7.0930     0.8930     0.7390 c2         1 VDZ      -0.199400
      4 C28         -8.3430     0.9620     1.1820 c2         1 VDZ      -0.198000
      5 C3          -6.6700     1.2800    -0.6560 c6         1 VDZ       0.188300
      6 O2          -7.7220     1.7440    -1.4630 oh         1 VDZ      -0.590800
      7 C4          -6.0480     0.0580    -1.3390 c6         1 VDZ      -0.032200
      8 C10         -5.3290    -0.8460     0.8920 c6         1 VDZ      -0.032200
      9 C5          -4.9240    -0.4980    -0.5100 c2         1 VDZ      -0.105400
     10 C6          -3.6910    -0.6450    -1.0200 ce         1 VDZ      -0.112000
     11 C7          -2.5170    -1.1270    -0.3160 ce         1 VDZ      -0.135000
     12 C8          -1.3040    -1.3380    -0.8520 c2         1 VDZ      -0.083400
     13 C9          -0.9500    -1.1690    -2.3040 c6         1 VDZ      -0.041200
     14 C11          0.2780    -0.2720    -2.4950 c6         1 VDZ      -0.071400
     15 C14         -0.1230    -1.7940    -0.0530 c5         1 VDZ      -0.034500
     16 C13          1.0660    -0.8010    -0.1410 c5         1 VDZ      -0.037000
     17 C12          1.4600    -0.6810    -1.6170 c6         1 VDZ      -0.062400
     18 C18          0.6770     0.5650     0.4300 c3         1 VDZ      -0.079100
     19 C15         -0.2560    -2.0840     1.4340 c5         1 VDZ      -0.072400
     20 C16          1.1970    -2.0430     1.9460 c5         1 VDZ      -0.075400
     21 C17          2.0790    -1.5200     0.7820 c5         1 VDZ      -0.054700
     22 C20          3.3200    -0.7680     1.2870 c3         1 VDZ      -0.045700
     23 C21          4.1480    -1.6920     2.1820 c3         1 VDZ      -0.090100
     24 C22          4.1690    -0.2060     0.1410 c3         1 VDZ      -0.075400
     25 C23          5.5240     0.3730     0.5410 c3         1 VDZ      -0.070400
     26 C24          6.2120     1.0340    -0.6480 c3         1 VDZ      -0.103400
     27 C25          7.6010     1.6290    -0.3760 c3         1 VDZ       0.160800
     28 C26          8.5840     0.5670     0.1020 c3         1 VDZ      -0.100600
     29 C27          8.1280     2.2710    -1.6600 c3         1 VDZ      -0.100600
     30 O3           7.5370     2.5990     0.6620 oh         1 VDZ      -0.597800
     31 HO1         -5.3620     2.0590     2.2680 ho         1 VDZ       0.402500
     32 H1          -6.3960     0.0010     2.5490 h1         1 VDZ       0.042200
     33 H281        -8.5950     0.6510     2.1880 ha         1 VDZ       0.117500
     34 H282        -9.1630     1.3140     0.5690 ha         1 VDZ       0.117500
     35 H3          -5.8840     2.0440    -0.5720 h1         1 VDZ       0.042200
     36 HO2         -8.0210     2.5910    -1.1170 ho         1 VDZ       0.402500
     37 H41         -6.8330    -0.6990    -1.4580 hc         1 VDZ       0.058450
     38 H42         -5.6970     0.3320    -2.3360 hc         1 VDZ       0.058450
     39 H101        -4.4980    -1.2140     1.4940 hc         1 VDZ       0.058450
     40 H102        -6.0730    -1.6500     0.8600 hc         1 VDZ       0.058450
     41 H6          -3.5580    -0.3610    -2.0590 ha         1 VDZ       0.118000
     42 H7          -2.6320    -1.3230     0.7440 ha         1 VDZ       0.125000
     43 H91         -0.7200    -2.1620    -2.7110 hc         1 VDZ       0.045200
     44 H92         -1.7820    -0.7830    -2.8940 hc         1 VDZ       0.045200
     45 H111         0.5790    -0.2970    -3.5450 hc         1 VDZ       0.039700
     46 H112         0.0000     0.7640    -2.2850 hc         1 VDZ       0.039700
     47 H14          0.2370    -2.7170    -0.5360 hc         1 VDZ       0.051700
     48 H121         1.8520    -1.6470    -1.9560 hc         1 VDZ       0.039200
     49 H122         2.2660     0.0410    -1.7600 hc         1 VDZ       0.039200
     50 H181         0.4340     0.5100     1.4920 hc         1 VDZ       0.035367
     51 H182         1.4910     1.2840     0.3170 hc         1 VDZ       0.035367
     52 H183        -0.1990     0.9750    -0.0730 hc         1 VDZ       0.035367
     53 H151        -0.8590    -1.3210     1.9300 hc         1 VDZ       0.045200
     54 H152        -0.7420    -3.0430     1.6250 hc         1 VDZ       0.045200
     55 H161         1.2790    -1.3820     2.8120 hc         1 VDZ       0.040700
     56 H162         1.5320    -3.0260     2.2780 hc         1 VDZ       0.040700
     57 H17          2.4420    -2.3900     0.2160 hc         1 VDZ       0.042700
     58 H20          2.9840     0.0780     1.9010 hc         1 VDZ       0.047700
     59 H211         3.5610    -2.0880     3.0100 hc         1 VDZ       0.033033
     60 H212         4.5310    -2.5420     1.6110 hc         1 VDZ       0.033033
     61 H213         5.0020    -1.1730     2.6160 hc         1 VDZ       0.033033
     62 H221         4.3290    -0.9920    -0.6060 hc         1 VDZ       0.036700
     63 H222         3.6020     0.5810    -0.3650 hc         1 VDZ       0.036700
     64 H231         5.3980     1.0980     1.3500 hc         1 VDZ       0.046200
     65 H232         6.1590    -0.4240     0.9330 hc         1 VDZ       0.046200
     66 H241         6.3050     0.3030    -1.4590 hc         1 VDZ       0.039200
     67 H242         5.5670     1.8300    -1.0400 hc         1 VDZ       0.039200
     68 H261         8.6470    -0.2480    -0.6200 hc         1 VDZ       0.041033
     69 H262         9.5850     0.9880     0.2170 hc         1 VDZ       0.041033
     70 H263         8.2900     0.1400     1.0620 hc         1 VDZ       0.041033
     71 H271         7.4540     3.0550    -2.0150 hc         1 VDZ       0.041033
     72 H272         9.1110     2.7190    -1.4980 hc         1 VDZ       0.041033
     73 H273         8.2230     1.5350    -2.4590 hc         1 VDZ       0.041033
     74 HO3          6.9210     3.2890     0.3930 ho         1 VDZ       0.399000
@<TRIPOS>BOND
     1     1     2 1   
     2     1    31 1   
     3     2     3 1   
     4     2     8 1   
     5     2    32 1   
     6     3     4 2   
     7     3     5 1   
     8     4    33 1   
     9     4    34 1   
    10     5     6 1   
    11     5     7 1   
    12     5    35 1   
    13     6    36 1   
    14     7     9 1   
    15     7    37 1   
    16     7    38 1   
    17     8     9 1   
    18     8    39 1   
    19     8    40 1   
    20     9    10 2   
    21    10    11 1   
    22    10    41 1   
    23    11    12 2   
    24    11    42 1   
    25    12    13 1   
    26    12    15 1   
    27    13    14 1   
    28    13    43 1   
    29    13    44 1   
    30    14    17 1   
    31    14    45 1   
    32    14    46 1   
    33    15    16 1   
    34    15    19 1   
    35    15    47 1   
    36    16    17 1   
    37    16    18 1   
    38    16    21 1   
    39    17    48 1   
    40    17    49 1   
    41    18    50 1   
    42    18    51 1   
    43    18    52 1   
    44    19    20 1   
    45    19    53 1   
    46    19    54 1   
    47    20    21 1   
    48    20    55 1   
    49    20    56 1   
    50    21    22 1   
    51    21    57 1   
    52    22    23 1   
    53    22    24 1   
    54    22    58 1   
    55    23    59 1   
    56    23    60 1   
    57    23    61 1   
    58    24    25 1   
    59    24    62 1   
    60    24    63 1   
    61    25    26 1   
    62    25    64 1   
    63    25    65 1   
    64    26    27 1   
    65    26    66 1   
    66    26    67 1   
    67    27    28 1   
    68    27    29 1   
    69    27    30 1   
    70    28    68 1   
    71    28    69 1   
    72    28    70 1   
    73    29    71 1   
    74    29    72 1   
    75    29    73 1   
    76    30    74 1   
@<TRIPOS>SUBSTRUCTURE
     1 VDZ         1 TEMP              0 ****  ****    0 ROOT
