@<TRIPOS>MOLECULE
VE0
   32    33     1     0     0
SMALL
abcg2


@<TRIPOS>ATOM
      1 N1           4.6300    19.3490   -19.2360 nh         1 VE0      -0.776300
      2 C7           5.2930    22.0580   -20.0370 c6         1 VE0      -0.076400
      3 C8           4.5590    21.0980   -20.9720 c6         1 VE0      -0.083400
      4 N2           2.8890    16.8570   -21.8990 nu         1 VE0      -0.659900
      5 C9           3.7630    20.0780   -20.1720 c6         1 VE0       0.210800
      6 C1           3.4490    15.8540   -19.2230 ca         1 VE0      -0.019000
      7 C5           5.2950    20.2370   -18.2830 c6         1 VE0       0.210800
      8 C6           6.1320    21.2740   -19.0290 c6         1 VE0      -0.083400
      9 N3           5.1160    17.5240   -21.8080 n2         1 VE0      -0.779100
     10 C4           3.9260    16.6380   -17.0380 ca         1 VE0       0.389900
     11 C3           4.2490    18.0890   -18.8090 ca         1 VE0       0.620900
     12 C2           3.8670    17.0750   -19.7320 ca         1 VE0      -0.301900
     13 O            2.8420    17.1800   -23.2640 oh         1 VE0      -0.421300
     14 C10          4.0300    17.2170   -21.2090 ce         1 VE0       0.634800
     15 N            4.2910    17.8390   -17.4950 nb         1 VE0      -0.743000
     16 C            3.4630    15.6200   -17.8520 ca         1 VE0      -0.213000
     17 H1           5.9230    22.7440   -20.6070 hc         1 VE0       0.041700
     18 H2           4.5590    22.6680   -19.4990 hc         1 VE0       0.041700
     19 H3           5.2760    20.5680   -21.6050 hc         1 VE0       0.052950
     20 H4           3.8770    21.6430   -21.6300 hc         1 VE0       0.052950
     21 H5           2.0100    17.0950   -21.4600 hn         1 VE0       0.477000
     22 H6           2.9810    20.5940   -19.5950 h1         1 VE0       0.045450
     23 H7           3.2600    19.3820   -20.8350 h1         1 VE0       0.045450
     24 H8           3.1550    15.0690   -19.9080 ha         1 VE0       0.129000
     25 H9           4.5540    20.7420   -17.6460 h1         1 VE0       0.045450
     26 H10          5.9250    19.6370   -17.6320 h1         1 VE0       0.045450
     27 H11          6.9440    20.7590   -19.5510 hc         1 VE0       0.052950
     28 H12          6.5880    21.9470   -18.3000 hc         1 VE0       0.052950
     29 H13          5.8450    17.7010   -21.1210 hn         1 VE0       0.399400
     30 H14          4.0010    16.4950   -15.9650 h4         1 VE0       0.020100
     31 H15          3.0130    16.3440   -23.7230 ho         1 VE0       0.459000
     32 H16          3.1560    14.6700   -17.4370 ha         1 VE0       0.129000
@<TRIPOS>BOND
     1     1     5 1   
     2     1     7 1   
     3     1    11 1   
     4     2     3 1   
     5     2     8 1   
     6     2    17 1   
     7     2    18 1   
     8     3     5 1   
     9     3    19 1   
    10     3    20 1   
    11     4    13 1   
    12     4    14 1   
    13     4    21 1   
    14     5    22 1   
    15     5    23 1   
    16     6    12 ar  
    17     6    16 ar  
    18     6    24 1   
    19     7     8 1   
    20     7    25 1   
    21     7    26 1   
    22     8    27 1   
    23     8    28 1   
    24     9    14 2   
    25     9    29 1   
    26    10    15 ar  
    27    10    16 ar  
    28    10    30 1   
    29    11    12 ar  
    30    11    15 ar  
    31    12    14 1   
    32    13    31 1   
    33    16    32 1   
@<TRIPOS>SUBSTRUCTURE
     1 VE0         1 TEMP              0 ****  ****    0 ROOT
