@<TRIPOS>MOLECULE
VE0
   32    33     1     0     0
SMALL
No Charge or Current Charge


@<TRIPOS>ATOM
      1 N1           4.5680    19.3440   -19.2620 nh         1 VE0      -0.776300
      2 C7           5.3560    22.0930   -19.9810 c6         1 VE0      -0.076400
      3 C8           4.2350    21.3410   -20.7370 c6         1 VE0      -0.083400
      4 N2           3.3350    16.3760   -22.0600 nu         1 VE0      -0.659900
      5 C9           3.5620    20.2790   -19.8320 c6         1 VE0       0.210800
      6 C1           3.3950    15.8070   -19.2010 ca         1 VE0      -0.019000
      7 C5           5.6420    20.0370   -18.4950 c6         1 VE0       0.210800
      8 C6           6.3620    21.0850   -19.3780 c6         1 VE0      -0.083400
      9 N3           5.0990    17.8530   -21.6310 n2         1 VE0      -0.779100
     10 C4           3.4940    16.8220   -17.0130 ca         1 VE0       0.389900
     11 C3           4.1240    18.0820   -18.8420 ca         1 VE0       0.620900
     12 C2           3.8460    17.0320   -19.7410 ca         1 VE0      -0.301900
     13 O            3.2060    16.8030   -23.4650 oh         1 VE0      -0.421300
     14 C10          4.1220    17.1510   -21.1950 ce         1 VE0       0.634800
     15 N            3.9460    17.9880   -17.5130 nb         1 VE0      -0.743000
     16 C            3.2100    15.7130   -17.8170 ca         1 VE0      -0.213000
     17 H1           5.8730    22.7850   -20.6610 hc         1 VE0       0.041700
     18 H2           4.9170    22.7050   -19.1800 hc         1 VE0       0.041700
     19 H3           4.6530    20.8520   -21.6270 hc         1 VE0       0.052950
     20 H4           3.4810    22.0520   -21.0970 hc         1 VE0       0.052950
     21 H5           2.4500    16.0300   -21.6770 hn         1 VE0       0.477000
     22 H6           3.0210    20.7860   -19.0190 h1         1 VE0       0.045450
     23 H7           2.8180    19.7280   -20.4260 h1         1 VE0       0.045450
     24 H8           3.2060    14.9370   -19.8290 ha         1 VE0       0.129000
     25 H9           5.2150    20.5390   -17.6130 h1         1 VE0       0.045450
     26 H10          6.3850    19.3100   -18.1350 h1         1 VE0       0.045450
     27 H11          6.9030    20.5730   -20.1850 hc         1 VE0       0.052950
     28 H12          7.1160    21.6160   -18.7830 hc         1 VE0       0.052950
     29 H13          5.2940    18.5470   -20.8890 hn         1 VE0       0.399400
     30 H14          3.3610    16.7740   -15.9320 h4         1 VE0       0.020100
     31 H15          3.8040    16.2190   -23.9960 ho         1 VE0       0.459000
     32 H16          2.8620    14.7890   -17.3630 ha         1 VE0       0.129000
@<TRIPOS>BOND
     1     1     5 1   
     2     1     7 1   
     3     1    11 1   
     4     2     3 1   
     5     2     8 1   
     6     2    17 1   
     7     2    18 1   
     8     3     5 1   
     9     3    19 1   
    10     3    20 1   
    11     4    13 1   
    12     4    14 1   
    13     4    21 1   
    14     5    22 1   
    15     5    23 1   
    16     6    12 ar  
    17     6    16 ar  
    18     6    24 1   
    19     7     8 1   
    20     7    25 1   
    21     7    26 1   
    22     8    27 1   
    23     8    28 1   
    24     9    14 2   
    25     9    29 1   
    26    10    15 ar  
    27    10    16 ar  
    28    10    30 1   
    29    11    12 ar  
    30    11    15 ar  
    31    12    14 1   
    32    13    31 1   
    33    16    32 1   
@<TRIPOS>SUBSTRUCTURE
     1 VE0         1 TEMP              0 ****  ****    0 ROOT
