@<TRIPOS>MOLECULE
VE1
   35    37     1     0     0
SMALL
abcg2


@<TRIPOS>ATOM
      1 C01          9.6990    24.5950    -1.9210 ca         1 VE1       0.398900
      2 C03         10.6780    26.6540    -2.1010 ca         1 VE1       0.157000
      3 C04          9.6310    27.0850    -2.9280 ca         1 VE1      -0.245000
      4 C05          8.6540    26.1430    -3.1790 ca         1 VE1       0.255000
      5 C08         13.6360    28.5020    -1.0390 cc         1 VE1      -0.181000
      6 C09         13.0150    27.2720    -1.1130 cd         1 VE1      -0.141300
      7 C10         11.7760    27.5550    -1.7510 cd         1 VE1       0.188000
      8 C12         15.0870    25.6620    -2.6980 ca         1 VE1      -0.145000
      9 C13         15.5740    24.8740    -3.7210 ca         1 VE1       0.163000
     10 C14         15.1570    23.5720    -3.9350 ca         1 VE1      -0.149000
     11 C15         14.2080    23.0490    -3.0640 ca         1 VE1      -0.088000
     12 C16         13.7040    23.8190    -2.0200 ca         1 VE1      -0.115000
     13 C17         14.1360    25.1300    -1.8250 ca         1 VE1      -0.041300
     14 N02         10.7080    25.4170    -1.6000 nb         1 VE1      -0.255000
     15 N06          8.6510    24.9150    -2.7100 nb         1 VE1      -0.242000
     16 N07         12.8060    29.4160    -1.5970 na         1 VE1       0.135800
     17 N11         11.6740    28.8640    -2.0340 nc         1 VE1      -0.504800
     18 N21          9.7150    23.3520    -1.4000 nv         1 VE1      -1.074900
     19 CL22         7.2970    26.5800    -4.2030 cl         1 VE1      -0.175000
     20 H041         9.5970    28.0790    -3.3410 ha         1 VE1       0.162000
     21 H081        14.5970    28.7840    -0.6380 h4         1 VE1       0.155000
     22 H121        15.4460    26.6770    -2.5860 ha         1 VE1       0.128000
     23 H141        15.5650    22.9950    -4.7540 ha         1 VE1       0.131000
     24 H151        13.8590    22.0340    -3.2040 ha         1 VE1       0.114000
     25 H161        12.9620    23.4020    -1.3520 ha         1 VE1       0.113000
     26 H191        12.8700    25.3810    -0.1300 hc         1 VE1       0.061700
     27 H192        14.4320    26.1780     0.0090 hc         1 VE1       0.061700
     28 H201        12.3190    31.3830    -1.0710 h1         1 VE1       0.060367
     29 H202        14.0380    31.0680    -1.4050 h1         1 VE1       0.060367
     30 H203        12.8730    31.1550    -2.7470 h1         1 VE1       0.060367
     31 H211         9.0330    22.6770    -1.7000 hn         1 VE1       0.504500
     32 H212        10.5240    23.0390    -0.8900 hn         1 VE1       0.504500
     33 C19         13.6060    25.9650    -0.6760 c3         1 VE1       0.054200
     34 C20         13.0190    30.8470    -1.7130 c3         1 VE1       0.075900
     35 F18         16.5090    25.4030    -4.5580 f          1 VE1      -0.189000
@<TRIPOS>BOND
     1     1    14 ar  
     2     1    15 ar  
     3     1    18 1   
     4     2     3 ar  
     5     2     7 1   
     6     2    14 ar  
     7     3     4 ar  
     8     3    20 1   
     9     4    15 ar  
    10     4    19 1   
    11     5     6 2   
    12     5    16 1   
    13     5    21 1   
    14     6     7 1   
    15     6    33 1   
    16     7    17 2   
    17     8     9 ar  
    18     8    13 ar  
    19     8    22 1   
    20     9    10 ar  
    21     9    35 1   
    22    10    11 ar  
    23    10    23 1   
    24    11    12 ar  
    25    11    24 1   
    26    12    13 ar  
    27    12    25 1   
    28    13    33 1   
    29    16    17 1   
    30    16    34 1   
    31    18    31 1   
    32    18    32 1   
    33    26    33 1   
    34    27    33 1   
    35    28    34 1   
    36    29    34 1   
    37    30    34 1   
@<TRIPOS>SUBSTRUCTURE
     1 VE1         1 TEMP              0 ****  ****    0 ROOT
