@<TRIPOS>MOLECULE
VE1
   35    37     1     0     0
SMALL
No Charge or Current Charge


@<TRIPOS>ATOM
      1 C01          9.9320    24.5850    -2.2810 ca         1 VE1       0.398900
      2 C03         10.7700    26.7240    -2.1730 ca         1 VE1       0.157000
      3 C04          9.6170    27.1630    -2.8640 ca         1 VE1      -0.245000
      4 C05          8.6580    26.2060    -3.2270 ca         1 VE1       0.255000
      5 C08         13.7070    28.5940    -0.9140 cc         1 VE1      -0.181000
      6 C09         13.0650    27.3960    -1.0700 cd         1 VE1      -0.141300
      7 C10         11.8400    27.6770    -1.7540 cd         1 VE1       0.188000
      8 C12         14.5840    25.6100    -2.9190 ca         1 VE1      -0.145000
      9 C13         14.9760    24.7230    -3.9340 ca         1 VE1       0.163000
     10 C14         14.8420    23.3380    -3.7590 ca         1 VE1      -0.149000
     11 C15         14.3150    22.8350    -2.5570 ca         1 VE1      -0.088000
     12 C16         13.9190    23.7210    -1.5390 ca         1 VE1      -0.115000
     13 C17         14.0440    25.1150    -1.7130 ca         1 VE1      -0.041300
     14 N02         10.9110    25.4100    -1.8840 nb         1 VE1      -0.255000
     15 N06          8.8100    24.9030    -2.9380 nb         1 VE1      -0.242000
     16 N07         12.8610    29.5220    -1.4980 na         1 VE1       0.135800
     17 N11         11.7140    28.9710    -2.0160 nc         1 VE1      -0.504800
     18 N21         10.1030    23.2730    -1.9880 nv         1 VE1      -1.074900
     19 Cl22         7.2000    26.6740    -4.0890 cl         1 VE1      -0.175000
     20 H041         9.4660    28.2090    -3.1150 ha         1 VE1       0.162000
     21 H081        14.6550    28.8540    -0.4600 h4         1 VE1       0.155000
     22 H121        14.7000    26.6790    -3.0760 ha         1 VE1       0.128000
     23 H141        15.1490    22.6580    -4.5500 ha         1 VE1       0.131000
     24 H151        14.2130    21.7610    -2.4140 ha         1 VE1       0.114000
     25 H161        13.5160    23.3220    -0.6110 ha         1 VE1       0.113000
     26 H191        12.8530    25.5770     0.0360 hc         1 VE1       0.061700
     27 H192        14.4610    26.2370     0.0640 hc         1 VE1       0.061700
     28 H201        12.2820    31.5050    -1.0870 h1         1 VE1       0.060367
     29 H202        14.0480    31.2270    -1.1300 h1         1 VE1       0.060367
     30 H203        13.1130    31.2640    -2.6540 h1         1 VE1       0.060367
     31 H211         9.5120    22.5950    -2.4640 hn         1 VE1       0.504500
     32 H212        11.0350    22.9570    -1.7310 hn         1 VE1       0.504500
     33 C19         13.6040    26.0630    -0.5980 c3         1 VE1       0.054200
     34 C20         13.0910    30.9700    -1.5990 c3         1 VE1       0.075900
     35 F18         15.4870    25.2070    -5.0860 f          1 VE1      -0.189000
@<TRIPOS>BOND
     1     1    14 ar  
     2     1    15 ar  
     3     1    18 1   
     4     2     3 ar  
     5     2     7 1   
     6     2    14 ar  
     7     3     4 ar  
     8     3    20 1   
     9     4    15 ar  
    10     4    19 1   
    11     5     6 2   
    12     5    16 1   
    13     5    21 1   
    14     6     7 1   
    15     6    33 1   
    16     7    17 2   
    17     8     9 ar  
    18     8    13 ar  
    19     8    22 1   
    20     9    10 ar  
    21     9    35 1   
    22    10    11 ar  
    23    10    23 1   
    24    11    12 ar  
    25    11    24 1   
    26    12    13 ar  
    27    12    25 1   
    28    13    33 1   
    29    16    17 1   
    30    16    34 1   
    31    18    31 1   
    32    18    32 1   
    33    26    33 1   
    34    27    33 1   
    35    28    34 1   
    36    29    34 1   
    37    30    34 1   
@<TRIPOS>SUBSTRUCTURE
     1 VE1         1 TEMP              0 ****  ****    0 ROOT
