@<TRIPOS>MOLECULE
VE3
   29    29     1     0     0
SMALL
No Charge or Current Charge


@<TRIPOS>ATOM
      1 N1          17.9810    10.0840   -36.9960 nc         1 VE3      -0.306000
      2 C7          22.9820     9.3000   -36.1810 c3         1 VE3       0.101500
      3 C8          23.7240     9.7910   -37.4420 c3         1 VE3      -0.112600
      4 N2          22.3020     7.9920   -36.3580 n          1 VE3      -0.403800
      5 C1          17.7360     7.9400   -35.8240 c3         1 VE3      -0.107700
      6 C5          23.1820     6.7960   -36.2860 c3         1 VE3       0.101500
      7 C6          23.5790     6.4030   -34.8490 c3         1 VE3      -0.112600
      8 C4          20.8860     7.8120   -36.3530 c          1 VE3       0.641700
      9 C3          19.9770     8.9440   -36.7100 cd         1 VE3      -0.310600
     10 C2          18.6130     8.9600   -36.5160 cc         1 VE3       0.266300
     11 O           20.4330     6.7130   -36.0660 o          1 VE3      -0.585100
     12 S           20.3860    10.4000   -37.5810 ss         1 VE3       0.307100
     13 N           18.8020    10.9190   -37.5760 nd         1 VE3      -0.134100
     14 C           17.8690     7.9670   -34.2860 c3         1 VE3      -0.087100
     15 H1          23.7250     9.2010   -35.3790 h1         1 VE3       0.056200
     16 H2          22.2780    10.0580   -35.8210 h1         1 VE3       0.056200
     17 H3          24.1230    10.7990   -37.2790 hc         1 VE3       0.044533
     18 H4          24.5660     9.1290   -37.6770 hc         1 VE3       0.044533
     19 H5          23.0640     9.8170   -38.3150 hc         1 VE3       0.044533
     20 H6          16.6850     8.1250   -36.0780 hc         1 VE3       0.065700
     21 H7          17.9460     6.9330   -36.1980 hc         1 VE3       0.065700
     22 H8          22.6870     5.9430   -36.7690 h1         1 VE3       0.056200
     23 H9          24.0960     6.9900   -36.8610 h1         1 VE3       0.056200
     24 H10         24.1990     5.5000   -34.8620 hc         1 VE3       0.044533
     25 H11         24.1510     7.2020   -34.3640 hc         1 VE3       0.044533
     26 H12         22.6870     6.1980   -34.2450 hc         1 VE3       0.044533
     27 H13         17.2090     7.2190   -33.8320 hc         1 VE3       0.039033
     28 H14         18.8980     7.7510   -33.9770 hc         1 VE3       0.039033
     29 H15         17.5920     8.9530   -33.8930 hc         1 VE3       0.039033
@<TRIPOS>BOND
     1     1    10 1   
     2     1    13 2   
     3     2     3 1   
     4     2     4 1   
     5     2    15 1   
     6     2    16 1   
     7     3    17 1   
     8     3    18 1   
     9     3    19 1   
    10     4     6 1   
    11     4     8 1   
    12     5    10 1   
    13     5    14 1   
    14     5    20 1   
    15     5    21 1   
    16     6     7 1   
    17     6    22 1   
    18     6    23 1   
    19     7    24 1   
    20     7    25 1   
    21     7    26 1   
    22     8     9 1   
    23     8    11 2   
    24     9    10 2   
    25     9    12 1   
    26    12    13 1   
    27    14    27 1   
    28    14    28 1   
    29    14    29 1   
@<TRIPOS>SUBSTRUCTURE
     1 VE3         1 TEMP              0 ****  ****    0 ROOT
