@<TRIPOS>MOLECULE
VE3
   29    29     1     0     0
SMALL
abcg2


@<TRIPOS>ATOM
      1 N1          18.0360     9.7550   -37.0900 nc         1 VE3      -0.306000
      2 C7          22.4280     9.1840   -35.9840 c3         1 VE3       0.101500
      3 C8          23.3870     9.9950   -36.8460 c3         1 VE3      -0.112600
      4 N2          22.1480     7.8560   -36.5400 n          1 VE3      -0.403800
      5 C1          18.4850     8.0160   -35.3710 c3         1 VE3      -0.107700
      6 C5          23.1480     6.8090   -36.3040 c3         1 VE3       0.101500
      7 C6          22.8480     6.0090   -35.0410 c3         1 VE3      -0.112600
      8 C4          21.0240     7.5340   -37.1960 c          1 VE3       0.641700
      9 C3          19.9870     8.6030   -37.3730 cd         1 VE3      -0.310600
     10 C2          18.8490     8.7640   -36.6140 cc         1 VE3       0.266300
     11 O           20.7840     6.4100   -37.6440 o          1 VE3      -0.585100
     12 S           19.9450     9.7180   -38.6490 ss         1 VE3       0.307100
     13 N           18.4570    10.3480   -38.1470 nd         1 VE3      -0.134100
     14 C           18.8310     8.7900   -34.0930 c3         1 VE3      -0.087100
     15 H1          22.8450     9.0350   -34.9860 h1         1 VE3       0.056200
     16 H2          21.4900     9.7170   -35.8570 h1         1 VE3       0.056200
     17 H3          23.5960    10.9510   -36.3640 hc         1 VE3       0.044533
     18 H4          24.3340     9.4720   -36.9870 hc         1 VE3       0.044533
     19 H5          22.9530    10.1920   -37.8280 hc         1 VE3       0.044533
     20 H6          17.4140     7.8070   -35.3980 hc         1 VE3       0.065700
     21 H7          19.0010     7.0540   -35.3730 hc         1 VE3       0.065700
     22 H8          23.1690     6.1560   -37.1740 h1         1 VE3       0.056200
     23 H9          24.1180     7.2980   -36.2280 h1         1 VE3       0.056200
     24 H10         23.6250     5.2590   -34.8820 hc         1 VE3       0.044533
     25 H11         22.8170     6.6600   -34.1650 hc         1 VE3       0.044533
     26 H12         21.8890     5.4980   -35.1280 hc         1 VE3       0.044533
     27 H13         18.5280     8.2210   -33.2130 hc         1 VE3       0.039033
     28 H14         19.9050     8.9740   -34.0290 hc         1 VE3       0.039033
     29 H15         18.3190     9.7540   -34.0720 hc         1 VE3       0.039033
@<TRIPOS>BOND
     1     1    10 1   
     2     1    13 2   
     3     2     3 1   
     4     2     4 1   
     5     2    15 1   
     6     2    16 1   
     7     3    17 1   
     8     3    18 1   
     9     3    19 1   
    10     4     6 1   
    11     4     8 1   
    12     5    10 1   
    13     5    14 1   
    14     5    20 1   
    15     5    21 1   
    16     6     7 1   
    17     6    22 1   
    18     6    23 1   
    19     7    24 1   
    20     7    25 1   
    21     7    26 1   
    22     8     9 1   
    23     8    11 2   
    24     9    10 2   
    25     9    12 1   
    26    12    13 1   
    27    14    27 1   
    28    14    28 1   
    29    14    29 1   
@<TRIPOS>SUBSTRUCTURE
     1 VE3         1 TEMP              0 ****  ****    0 ROOT
