@<TRIPOS>MOLECULE
VE5
   40    42     1     0     0
SMALL
abcg2


@<TRIPOS>ATOM
      1 N1          45.4910    16.3640    10.1980 ns         1 VE5      -0.471900
      2 N3          41.6070    17.2150     7.9570 nc         1 VE5      -0.514800
      3 C4          43.5750    17.0100     8.9540 cc         1 VE5      -0.228600
      4 C5          44.7290    17.3970     9.8030 c          1 VE5       0.645700
      5 C6          46.6940    16.5530    10.9400 cx         1 VE5       0.042700
      6 C7          47.8400    15.6450    10.6350 cx         1 VE5      -0.131400
      7 C8          47.9010    17.0870    10.2360 cx         1 VE5      -0.131400
      8 C10         41.3360    18.4220    10.9060 ca         1 VE5      -0.127300
      9 C13         40.1360    17.5330    13.2630 ca         1 VE5      -0.095000
     10 C15         40.0390    17.9130    10.8890 ca         1 VE5      -0.084500
     11 O1          44.9740    18.5610    10.0810 o          1 VE5      -0.600100
     12 C3          43.4530    15.9490     8.0830 cd         1 VE5      -0.141000
     13 N2          42.4400    17.7440     8.8270 na         1 VE5       0.187800
     14 C2          42.2030    16.1320     7.4820 cd         1 VE5       0.187500
     15 C1          41.5890    15.2810     6.4370 c          1 VE5       0.532600
     16 O           42.1430    14.2550     6.0630 o          1 VE5      -0.604100
     17 N           40.4230    15.7170     5.9480 ns         1 VE5      -0.495900
     18 C           39.7080    15.0110     4.9120 c3         1 VE5       0.097300
     19 C9          41.9850    18.8770     9.6250 c3         1 VE5       0.125900
     20 C14         39.4420    17.4710    12.0600 ca         1 VE5      -0.116000
     21 C12         41.4270    18.0430    13.2880 ca         1 VE5      -0.116000
     22 C11         42.0240    18.4840    12.1130 ca         1 VE5      -0.084500
     23 H1          45.1630    15.4220    10.0510 hn         1 VE5       0.330500
     24 H2          46.5540    16.8460    11.9760 h1         1 VE5       0.088700
     25 H3          47.7000    14.9120     9.8500 hc         1 VE5       0.079700
     26 H4          48.4440    15.3060    11.4650 hc         1 VE5       0.079700
     27 H5          47.8020    17.3220     9.1840 hc         1 VE5       0.079700
     28 H6          48.5510    17.7530    10.7880 hc         1 VE5       0.079700
     29 H7          39.6690    17.1910    14.1770 ha         1 VE5       0.114000
     30 H8          39.4920    17.8670     9.9550 ha         1 VE5       0.123000
     31 H9          44.1780    15.1780     7.8800 ha         1 VE5       0.161000
     32 H10         40.0400    16.5780     6.3040 hn         1 VE5       0.333500
     33 H11         38.8060    15.5680     4.6760 h1         1 VE5       0.040033
     34 H12         40.3030    14.9190     4.0030 h1         1 VE5       0.040033
     35 H13         39.4180    14.0090     5.2320 h1         1 VE5       0.040033
     36 H14         42.8310    19.5280     9.8200 h1         1 VE5       0.089700
     37 H15         41.2780    19.4210     9.0010 h1         1 VE5       0.089700
     38 H16         38.4320    17.0820    12.0360 ha         1 VE5       0.116000
     39 H17         41.9710    18.0990    14.2220 ha         1 VE5       0.116000
     40 H18         43.0310    18.8830    12.1380 ha         1 VE5       0.123000
@<TRIPOS>BOND
     1     1     4 1   
     2     1     5 1   
     3     1    23 1   
     4     2    13 1   
     5     2    14 2   
     6     3     4 1   
     7     3    12 2   
     8     3    13 1   
     9     4    11 2   
    10     5     6 1   
    11     5     7 1   
    12     5    24 1   
    13     6     7 1   
    14     6    25 1   
    15     6    26 1   
    16     7    27 1   
    17     7    28 1   
    18     8    10 ar  
    19     8    19 1   
    20     8    22 ar  
    21     9    20 ar  
    22     9    21 ar  
    23     9    29 1   
    24    10    20 ar  
    25    10    30 1   
    26    12    14 1   
    27    12    31 1   
    28    13    19 1   
    29    14    15 1   
    30    15    16 2   
    31    15    17 1   
    32    17    18 1   
    33    17    32 1   
    34    18    33 1   
    35    18    34 1   
    36    18    35 1   
    37    19    36 1   
    38    19    37 1   
    39    20    38 1   
    40    21    22 ar  
    41    21    39 1   
    42    22    40 1   
@<TRIPOS>SUBSTRUCTURE
     1 VE5         1 TEMP              0 ****  ****    0 ROOT
