@<TRIPOS>MOLECULE
VE5
   40    42     1     0     0
SMALL
No Charge or Current Charge


@<TRIPOS>ATOM
      1 N1          45.6000    16.2700     9.9650 ns         1 VE5      -0.471900
      2 N3          41.5040    17.2040     7.8840 nc         1 VE5      -0.514800
      3 C4          43.4790    16.9800     9.0890 cc         1 VE5      -0.228600
      4 C5          44.5820    17.1920    10.0570 c          1 VE5       0.645700
      5 C6          46.7770    16.2710    10.7910 cx         1 VE5       0.042700
      6 C7          47.9300    15.3930    10.3710 cx         1 VE5      -0.131400
      7 C8          48.0300    16.8920    10.2240 cx         1 VE5      -0.131400
      8 C10         41.2190    18.5180    11.0390 ca         1 VE5      -0.127300
      9 C13         40.0840    17.8990    13.5490 ca         1 VE5      -0.095000
     10 C15         40.2430    17.5050    11.1510 ca         1 VE5      -0.084500
     11 O1          44.6080    18.1030    10.8710 o          1 VE5      -0.600100
     12 C3          43.4020    15.9960     8.1330 cd         1 VE5      -0.141000
     13 N2          42.2940    17.6920     8.9080 na         1 VE5       0.187800
     14 C2          42.1930    16.1650     7.4220 cd         1 VE5       0.187500
     15 C1          41.7300    15.2910     6.2850 c          1 VE5       0.532600
     16 O           42.3540    14.3300     5.8480 o          1 VE5      -0.604100
     17 N           40.5100    15.6680     5.7580 ns         1 VE5      -0.495900
     18 C           39.8340    14.9910     4.6510 c3         1 VE5       0.097300
     19 C9          41.8360    18.8640     9.6820 c3         1 VE5       0.125900
     20 C14         39.6800    17.1970    12.4020 ca         1 VE5      -0.116000
     21 C12         41.0520    18.9120    13.4440 ca         1 VE5      -0.116000
     22 C11         41.6160    19.2220    12.1940 ca         1 VE5      -0.084500
     23 H1          45.4870    15.5480     9.2660 hn         1 VE5       0.330500
     24 H2          46.5810    16.3860    11.8590 h1         1 VE5       0.088700
     25 H3          47.8240    14.8020     9.4640 hc         1 VE5       0.079700
     26 H4          48.5150    14.9210    11.1560 hc         1 VE5       0.079700
     27 H5          47.9840    17.3100     9.2210 hc         1 VE5       0.079700
     28 H6          48.6810    17.4280    10.9110 hc         1 VE5       0.079700
     29 H7          39.6480    17.6600    14.5170 ha         1 VE5       0.114000
     30 H8          39.9170    16.9560    10.2700 ha         1 VE5       0.123000
     31 H9          44.1290    15.2150     7.9310 ha         1 VE5       0.161000
     32 H10         40.0720    16.4770     6.1880 hn         1 VE5       0.333500
     33 H11         38.8840    15.4980     4.4360 h1         1 VE5       0.040033
     34 H12         40.4700    15.0210     3.7560 h1         1 VE5       0.040033
     35 H13         39.6340    13.9470     4.9230 h1         1 VE5       0.040033
     36 H14         42.6880    19.5400     9.8160 h1         1 VE5       0.089700
     37 H15         41.0920    19.4030     9.0830 h1         1 VE5       0.089700
     38 H16         38.9290    16.4140    12.4810 ha         1 VE5       0.116000
     39 H17         41.3650    19.4580    14.3320 ha         1 VE5       0.116000
     40 H18         42.3670    20.0070    12.1270 ha         1 VE5       0.123000
@<TRIPOS>BOND
     1     1     4 1   
     2     1     5 1   
     3     1    23 1   
     4     2    13 1   
     5     2    14 2   
     6     3     4 1   
     7     3    12 2   
     8     3    13 1   
     9     4    11 2   
    10     5     6 1   
    11     5     7 1   
    12     5    24 1   
    13     6     7 1   
    14     6    25 1   
    15     6    26 1   
    16     7    27 1   
    17     7    28 1   
    18     8    10 ar  
    19     8    19 1   
    20     8    22 ar  
    21     9    20 ar  
    22     9    21 ar  
    23     9    29 1   
    24    10    20 ar  
    25    10    30 1   
    26    12    14 1   
    27    12    31 1   
    28    13    19 1   
    29    14    15 1   
    30    15    16 2   
    31    15    17 1   
    32    17    18 1   
    33    17    32 1   
    34    18    33 1   
    35    18    34 1   
    36    18    35 1   
    37    19    36 1   
    38    19    37 1   
    39    20    38 1   
    40    21    22 ar  
    41    21    39 1   
    42    22    40 1   
@<TRIPOS>SUBSTRUCTURE
     1 VE5         1 TEMP              0 ****  ****    0 ROOT
