@<TRIPOS>MOLECULE
VE6
   31    33     1     0     0
SMALL
No Charge or Current Charge


@<TRIPOS>ATOM
      1 N12          5.1890    25.8680   -39.2490 na         1 VE6      -0.006500
      2 C13          4.6440    27.0070   -38.6620 ca         1 VE6      -0.018200
      3 C15          3.4730    29.1390   -38.8480 ca         1 VE6      -0.171500
      4 C20          5.9940    25.8540   -40.3750 ca         1 VE6      -0.059200
      5 C21          7.0180    26.7500   -40.7170 ca         1 VE6      -0.128000
      6 C22          7.7280    26.5230   -41.9140 ca         1 VE6      -0.097000
      7 C02          7.4050    25.4170   -42.7330 ca         1 VE6      -0.051900
      8 C03          6.3720    24.5280   -42.3650 ca         1 VE6      -0.015000
      9 C04          5.6840    24.7800   -41.1670 ca         1 VE6      -0.061800
     10 C05          4.5790    24.0930   -40.5370 cc         1 VE6      -0.195400
     11 C06          3.8470    22.8870   -41.0250 c          1 VE6       0.460300
     12 C07          2.6110    22.3520   -40.1250 c          1 VE6       0.659000
     13 C11          4.2590    24.8150   -39.3860 cd         1 VE6      -0.075100
     14 C14          4.0200    27.9930   -39.4520 ca         1 VE6      -0.071500
     15 C16          3.5480    29.3050   -37.4570 ca         1 VE6       0.128100
     16 C18          4.1690    28.3260   -36.6640 ca         1 VE6      -0.171500
     17 C19          4.7170    27.1780   -37.2660 ca         1 VE6      -0.071500
     18 O08          1.5010    22.2600   -40.6470 o          1 VE6      -0.701000
     19 O09          2.8260    22.0470   -38.9530 o          1 VE6      -0.701000
     20 O10          4.1630    22.3180   -42.0740 o          1 VE6      -0.569100
     21 O17          3.0150    30.4190   -36.8810 oh         1 VE6      -0.539100
     22 Br01         8.3760    25.1230   -44.3530 br         1 VE6      -0.145100
     23 H1           2.9920    29.8980   -39.4600 ha         1 VE6       0.119000
     24 H2           7.2600    27.5950   -40.0760 ha         1 VE6       0.109000
     25 H3           8.5270    27.2010   -42.2060 ha         1 VE6       0.111000
     26 H4           6.1200    23.6810   -42.9980 ha         1 VE6       0.157000
     27 H5           3.4520    24.6720   -38.6730 h4         1 VE6       0.252000
     28 H6           3.9580    27.8690   -40.5320 ha         1 VE6       0.135000
     29 H7           4.2320    28.4470   -35.5850 ha         1 VE6       0.119000
     30 H8           5.1990    26.4220   -36.6490 ha         1 VE6       0.135000
     31 H10          3.1580    30.3660   -35.9120 ho         1 VE6       0.462000
@<TRIPOS>BOND
     1     1     2 1   
     2     1     4 1   
     3     1    13 1   
     4     2    14 ar  
     5     2    17 ar  
     6     3    14 ar  
     7     3    15 ar  
     8     3    23 1   
     9     4     5 ar  
    10     4     9 ar  
    11     5     6 ar  
    12     5    24 1   
    13     6     7 ar  
    14     6    25 1   
    15     7     8 ar  
    16     7    22 1   
    17     8     9 ar  
    18     8    26 1   
    19     9    10 1   
    20    10    11 1   
    21    10    13 2   
    22    11    12 1   
    23    11    20 2   
    24    12    18 1   
    25    12    19 1   
    26    13    27 1   
    27    14    28 1   
    28    15    16 ar  
    29    15    21 1   
    30    16    17 ar  
    31    16    29 1   
    32    17    30 1   
    33    21    31 1   
@<TRIPOS>SUBSTRUCTURE
     1 VE6         1 TEMP              0 ****  ****    0 ROOT
