@<TRIPOS>MOLECULE
VE6
   31    33     1     0     0
SMALL
abcg2


@<TRIPOS>ATOM
      1 N12          4.6640    26.0760   -39.6800 na         1 VE6      -0.006500
      2 C13          4.3970    27.1960   -38.8590 ca         1 VE6      -0.018200
      3 C15          3.8380    29.5230   -38.6240 ca         1 VE6      -0.171500
      4 C20          5.6550    25.9860   -40.6370 ca         1 VE6      -0.059200
      5 C21          6.6090    26.9200   -41.0200 ca         1 VE6      -0.128000
      6 C22          7.5000    26.5610   -42.0140 ca         1 VE6      -0.097000
      7 C02          7.4230    25.2890   -42.5940 ca         1 VE6      -0.051900
      8 C03          6.4890    24.3490   -42.2110 ca         1 VE6      -0.015000
      9 C04          5.5830    24.7010   -41.2060 ca         1 VE6      -0.061800
     10 C05          4.5060    24.0090   -40.5460 cc         1 VE6      -0.195400
     11 C06          4.0280    22.6700   -40.8640 c          1 VE6       0.460300
     12 C07          2.8050    22.0980   -40.1070 c          1 VE6       0.659000
     13 C11          3.9910    24.9000   -39.6310 cd         1 VE6      -0.075100
     14 C14          4.1120    28.4320   -39.4280 ca         1 VE6      -0.071500
     15 C16          3.8260    29.3860   -37.2370 ca         1 VE6       0.128100
     16 C18          4.1060    28.1450   -36.6680 ca         1 VE6      -0.171500
     17 C19          4.4000    27.0600   -37.4780 ca         1 VE6      -0.071500
     18 O08          2.0510    21.3850   -40.7830 o          1 VE6      -0.701000
     19 O09          2.7270    22.3970   -38.9020 o          1 VE6      -0.701000
     20 O10          4.5840    22.0020   -41.7210 o          1 VE6      -0.569100
     21 O17          3.5410    30.4770   -36.5050 oh         1 VE6      -0.539100
     22 BR01         8.6590    24.8410   -43.9590 br         1 VE6      -0.145100
     23 H1           3.6150    30.4830   -39.0720 ha         1 VE6       0.119000
     24 H2           6.6660    27.9000   -40.5660 ha         1 VE6       0.109000
     25 H3           8.2530    27.2680   -42.3340 ha         1 VE6       0.111000
     26 H4           6.4540    23.3700   -42.6650 ha         1 VE6       0.157000
     27 H5           3.1720    24.7720   -38.9430 h4         1 VE6       0.252000
     28 H6           4.0910    28.5440   -40.5050 ha         1 VE6       0.135000
     29 H7           4.1060    28.0230   -35.5910 ha         1 VE6       0.119000
     30 H8           4.6330    26.1040   -37.0270 ha         1 VE6       0.135000
     31 H10          3.5500    30.2690   -35.5630 ho         1 VE6       0.462000
@<TRIPOS>BOND
     1     1     2 1   
     2     1     4 1   
     3     1    13 1   
     4     2    14 ar  
     5     2    17 ar  
     6     3    14 ar  
     7     3    15 ar  
     8     3    23 1   
     9     4     5 ar  
    10     4     9 ar  
    11     5     6 ar  
    12     5    24 1   
    13     6     7 ar  
    14     6    25 1   
    15     7     8 ar  
    16     7    22 1   
    17     8     9 ar  
    18     8    26 1   
    19     9    10 1   
    20    10    11 1   
    21    10    13 2   
    22    11    12 1   
    23    11    20 2   
    24    12    18 1   
    25    12    19 1   
    26    13    27 1   
    27    14    28 1   
    28    15    16 ar  
    29    15    21 1   
    30    16    17 ar  
    31    16    29 1   
    32    17    30 1   
    33    21    31 1   
@<TRIPOS>SUBSTRUCTURE
     1 VE6         1 TEMP              0 ****  ****    0 ROOT
