@<TRIPOS>MOLECULE
VE7
   48    51     1     0     0
SMALL
abcg2


@<TRIPOS>ATOM
      1 C13         22.2000    -7.1230     1.6070 ca         1 VE7      -0.052500
      2 C15         20.0100   -10.4800     2.7780 ca         1 VE7       0.060100
      3 C17         19.2730   -12.4950     3.7820 cp         1 VE7      -0.048000
      4 C20         17.9400   -14.9790     6.2870 ca         1 VE7       0.134100
      5 C22         15.6560   -15.4710     5.8620 c3         1 VE7       0.149900
      6 C24         20.2400   -14.5220     6.8060 ca         1 VE7      -0.083000
      7 C26         18.6250   -12.8180     2.5740 ca         1 VE7      -0.142000
      8 C28         19.3710   -10.7830     1.5770 ca         1 VE7      -0.092800
      9 C02         17.7220    -9.1700    -0.9330 c          1 VE7       0.724000
     10 C04         19.6360    -9.6850     0.6900 cc         1 VE7      -0.014400
     11 C05         20.3850    -8.8120     1.4150 cd         1 VE7       0.043900
     12 C06         20.9690    -7.5220     1.0870 ca         1 VE7      -0.042800
     13 C07         20.3020    -6.6400     0.2290 ca         1 VE7      -0.052500
     14 C08         20.8590    -5.4270    -0.1190 ca         1 VE7      -0.184500
     15 C09         22.1010    -5.0450     0.3950 ca         1 VE7       0.124100
     16 C12         22.7660    -5.9020     1.2710 ca         1 VE7      -0.184500
     17 C16         19.9850   -11.3010     3.8880 ca         1 VE7      -0.105000
     18 C18         19.2070   -13.4230     4.9300 cp         1 VE7       0.028000
     19 C19         18.0150   -14.0960     5.2150 ca         1 VE7      -0.189000
     20 C23         19.0640   -15.1930     7.0870 ca         1 VE7      -0.158000
     21 C25         20.3220   -13.6400     5.7350 ca         1 VE7      -0.144000
     22 C27         18.6660   -11.9810     1.4740 ca         1 VE7      -0.039000
     23 O01         17.1330    -9.6670    -1.9100 o          1 VE7      -0.723000
     24 O10         22.5660    -3.8480     0.0020 os         1 VE7      -0.346100
     25 O14         20.6240    -9.2840     2.6810 os         1 VE7      -0.190200
     26 O29         17.2760    -8.3290    -0.1290 o          1 VE7      -0.723000
     27 H131        22.7460    -7.7750     2.2770 ha         1 VE7       0.144000
     28 H223        14.8940   -16.1080     6.3030 h1         1 VE7       0.039033
     29 H221        15.3090   -14.4350     5.8930 h1         1 VE7       0.039033
     30 H222        15.7960   -15.7630     4.8170 h1         1 VE7       0.039033
     31 H241        21.1110   -14.6950     7.4250 ha         1 VE7       0.105000
     32 H261        18.0960   -13.7590     2.4980 ha         1 VE7       0.103000
     33 H031        19.3460   -10.5950    -1.1950 hc         1 VE7       0.037200
     34 H032        19.8310    -8.9200    -1.2830 hc         1 VE7       0.037200
     35 H071        19.3180    -6.9000    -0.1420 ha         1 VE7       0.144000
     36 H081        20.3280    -4.7550    -0.7810 ha         1 VE7       0.113500
     37 H112        23.9940    -2.4300     0.0600 h1         1 VE7       0.031700
     38 H111        23.8060    -3.3070     1.5890 h1         1 VE7       0.031700
     39 H113        24.6280    -4.0780     0.2130 h1         1 VE7       0.031700
     40 H121        23.7260    -5.6410     1.6950 ha         1 VE7       0.113500
     41 H161        20.4770   -11.0170     4.8100 ha         1 VE7       0.118000
     42 H191        17.1460   -13.9000     4.5990 ha         1 VE7       0.125000
     43 H231        19.0060   -15.8800     7.9210 ha         1 VE7       0.116000
     44 H251        21.2590   -13.1450     5.5150 ha         1 VE7       0.118000
     45 H271        18.1640   -12.2570     0.5550 ha         1 VE7       0.136000
     46 C03         19.1950    -9.6180    -0.7280 c3         1 VE7      -0.175200
     47 C11         23.8130    -3.4080     0.5000 c3         1 VE7       0.154900
     48 O21         16.8290   -15.6600     6.6270 os         1 VE7      -0.352100
@<TRIPOS>BOND
     1     1    12 ar  
     2     1    16 ar  
     3     1    27 1   
     4     2     8 ar  
     5     2    17 ar  
     6     2    25 1   
     7     3     7 ar  
     8     3    17 ar  
     9     3    18 1   
    10     4    19 ar  
    11     4    20 ar  
    12     4    48 1   
    13     5    28 1   
    14     5    29 1   
    15     5    30 1   
    16     5    48 1   
    17     6    20 ar  
    18     6    21 ar  
    19     6    31 1   
    20     7    22 ar  
    21     7    32 1   
    22     8    10 1   
    23     8    22 ar  
    24     9    23 1   
    25     9    26 1   
    26     9    46 1   
    27    10    11 2   
    28    10    46 1   
    29    11    12 1   
    30    11    25 1   
    31    12    13 ar  
    32    13    14 ar  
    33    13    35 1   
    34    14    15 ar  
    35    14    36 1   
    36    15    16 ar  
    37    15    24 1   
    38    16    40 1   
    39    17    41 1   
    40    18    19 ar  
    41    18    21 ar  
    42    19    42 1   
    43    20    43 1   
    44    21    44 1   
    45    22    45 1   
    46    24    47 1   
    47    33    46 1   
    48    34    46 1   
    49    37    47 1   
    50    38    47 1   
    51    39    47 1   
@<TRIPOS>SUBSTRUCTURE
     1 VE7         1 TEMP              0 ****  ****    0 ROOT
