@<TRIPOS>MOLECULE
VE7
   48    51     1     0     0
SMALL
No Charge or Current Charge


@<TRIPOS>ATOM
      1 C13         22.0740    -7.0200     1.7210 ca         1 VE7      -0.052500
      2 C15         20.0420   -10.5070     2.6490 ca         1 VE7       0.060100
      3 C17         19.2540   -12.5270     3.7320 cp         1 VE7      -0.048000
      4 C20         18.0020   -15.0420     6.3500 ca         1 VE7       0.134100
      5 C22         15.6230   -15.6090     6.0010 c3         1 VE7       0.149900
      6 C24         20.3460   -14.5580     6.7920 ca         1 VE7      -0.083000
      7 C26         18.4930   -12.7930     2.5510 ca         1 VE7      -0.142000
      8 C28         19.3100   -10.7700     1.5210 ca         1 VE7      -0.092800
      9 C02         17.5230    -9.0850    -0.8590 c          1 VE7       0.724000
     10 C04         19.5330    -9.6980     0.5580 cc         1 VE7      -0.014400
     11 C05         20.4280    -8.8470     1.2290 cd         1 VE7       0.043900
     12 C06         21.0380    -7.5300     0.9010 ca         1 VE7      -0.042800
     13 C07         20.6190    -6.7440    -0.1950 ca         1 VE7      -0.052500
     14 C08         21.2250    -5.5050    -0.4710 ca         1 VE7      -0.184500
     15 C09         22.2570    -5.0180     0.3400 ca         1 VE7       0.124100
     16 C12         22.6800    -5.7810     1.4450 ca         1 VE7      -0.184500
     17 C16         20.0470   -11.3460     3.7660 ca         1 VE7      -0.105000
     18 C18         19.2200   -13.4640     4.9010 cp         1 VE7       0.028000
     19 C19         18.0340   -14.1590     5.2480 ca         1 VE7      -0.189000
     20 C23         19.1610   -15.2360     7.1170 ca         1 VE7      -0.158000
     21 C25         20.3730   -13.6810     5.6960 ca         1 VE7      -0.144000
     22 C27         18.5140   -11.9200     1.4400 ca         1 VE7      -0.039000
     23 O01         16.5930    -9.8450    -0.6310 o          1 VE7      -0.723000
     24 O10         22.8110    -3.7960     0.0200 os         1 VE7      -0.346100
     25 O14         20.7150    -9.3450     2.4780 os         1 VE7      -0.190200
     26 O29         17.3860    -7.8780    -0.9870 o          1 VE7      -0.723000
     27 H131        22.4290    -7.5880     2.5780 ha         1 VE7       0.144000
     28 H223        14.8550   -16.2440     6.4590 h1         1 VE7       0.039033
     29 H221        15.2630   -14.5730     6.0200 h1         1 VE7       0.039033
     30 H222        15.7440   -15.9230     4.9560 h1         1 VE7       0.039033
     31 H241        21.2430   -14.7140     7.3880 ha         1 VE7       0.105000
     32 H261        17.8890   -13.6940     2.4900 ha         1 VE7       0.103000
     33 H031        18.9130   -10.7060    -1.1680 hc         1 VE7       0.037200
     34 H032        19.6200    -9.0700    -1.4650 hc         1 VE7       0.037200
     35 H071        19.8050    -7.0610    -0.8320 ha         1 VE7       0.144000
     36 H081        20.8840    -4.9160    -1.3180 ha         1 VE7       0.113500
     37 H112        24.1660    -2.2430     0.3650 h1         1 VE7       0.031700
     38 H111        23.5550    -3.0420     1.8290 h1         1 VE7       0.031700
     39 H113        24.7580    -3.8610     0.7960 h1         1 VE7       0.031700
     40 H121        23.4750    -5.4350     2.0990 ha         1 VE7       0.113500
     41 H161        20.6360   -11.0840     4.6400 ha         1 VE7       0.118000
     42 H191        17.1400   -13.9890     4.6570 ha         1 VE7       0.125000
     43 H231        19.1390   -15.9150     7.9650 ha         1 VE7       0.116000
     44 H251        21.3030   -13.1750     5.4520 ha         1 VE7       0.118000
     45 H271        17.9280   -12.1380     0.5500 ha         1 VE7       0.136000
     46 C03         18.9480    -9.6620    -0.8380 c3         1 VE7      -0.175200
     47 C11         23.8740    -3.2100     0.7930 c3         1 VE7       0.154900
     48 O21         16.8640   -15.7330     6.7190 os         1 VE7      -0.352100
@<TRIPOS>BOND
     1     1    12 ar  
     2     1    16 ar  
     3     1    27 1   
     4     2     8 ar  
     5     2    17 ar  
     6     2    25 1   
     7     3     7 ar  
     8     3    17 ar  
     9     3    18 1   
    10     4    19 ar  
    11     4    20 ar  
    12     4    48 1   
    13     5    28 1   
    14     5    29 1   
    15     5    30 1   
    16     5    48 1   
    17     6    20 ar  
    18     6    21 ar  
    19     6    31 1   
    20     7    22 ar  
    21     7    32 1   
    22     8    10 1   
    23     8    22 ar  
    24     9    23 1   
    25     9    26 1   
    26     9    46 1   
    27    10    11 2   
    28    10    46 1   
    29    11    12 1   
    30    11    25 1   
    31    12    13 ar  
    32    13    14 ar  
    33    13    35 1   
    34    14    15 ar  
    35    14    36 1   
    36    15    16 ar  
    37    15    24 1   
    38    16    40 1   
    39    17    41 1   
    40    18    19 ar  
    41    18    21 ar  
    42    19    42 1   
    43    20    43 1   
    44    21    44 1   
    45    22    45 1   
    46    24    47 1   
    47    33    46 1   
    48    34    46 1   
    49    37    47 1   
    50    38    47 1   
    51    39    47 1   
@<TRIPOS>SUBSTRUCTURE
     1 VE7         1 TEMP              0 ****  ****    0 ROOT
