@<TRIPOS>MOLECULE
VEC
   29    29     1     0     0
SMALL
No Charge or Current Charge


@<TRIPOS>ATOM
      1 C7           0.6120    13.6480   -35.7550 ca         1 VEC      -0.076000
      2 C8           0.0430    12.7820   -34.8080 ca         1 VEC      -0.183000
      3 C9          -1.3510    12.7330   -34.6560 ca         1 VEC       0.132100
      4 O1          -1.8590    18.8740   -38.4220 os         1 VEC      -0.448100
      5 C1          -2.8830    16.7520   -39.2820 c3         1 VEC      -0.012000
      6 C5          -1.6210    14.3990   -36.4330 ca         1 VEC      -0.103600
      7 C6          -0.2120    14.4560   -36.5580 ca         1 VEC      -0.126000
      8 C4          -2.5450    15.2700   -37.2650 c          1 VEC       0.598700
      9 C3          -0.5870    18.4000   -38.9070 c3         1 VEC       0.175900
     10 O3          -1.9090    11.9030   -33.7300 oh         1 VEC      -0.532100
     11 C2          -3.0110    18.1210   -38.5510 c          1 VEC       0.613100
     12 O2          -3.6010    15.6740   -36.7960 o          1 VEC      -0.569100
     13 N           -2.1290    15.6810   -38.5580 n          1 VEC      -0.414800
     14 O           -4.0810    18.5310   -38.1260 o          1 VEC      -0.423000
     15 C           -1.3300    14.7700   -39.4140 c3         1 VEC       0.092300
     16 C10         -2.1750    13.5400   -35.4570 ca         1 VEC      -0.096000
     17 H1           1.6940    13.7010   -35.8630 ha         1 VEC       0.118000
     18 H2           0.6890    12.1620   -34.1910 ha         1 VEC       0.117000
     19 H3          -3.9020    16.3910   -39.4700 h1         1 VEC       0.071700
     20 H4          -2.4260    16.9370   -40.2620 h1         1 VEC       0.071700
     21 H5           0.2560    15.1430   -37.2580 ha         1 VEC       0.117000
     22 H6           0.1850    19.1620   -38.7410 h1         1 VEC       0.042367
     23 H7          -0.2710    17.4940   -38.3770 h1         1 VEC       0.042367
     24 H8          -0.6200    18.1940   -39.9850 h1         1 VEC       0.042367
     25 H9          -1.1880    11.4230   -33.2690 ho         1 VEC       0.465000
     26 H10         -1.3070    13.7570   -38.9920 h1         1 VEC       0.045700
     27 H11         -1.7740    14.7100   -40.4160 h1         1 VEC       0.045700
     28 H12         -0.3050    15.1500   -39.5070 h1         1 VEC       0.045700
     29 H13         -3.2530    13.4900   -35.3240 ha         1 VEC       0.147000
@<TRIPOS>BOND
     1     1     2 ar  
     2     1     7 ar  
     3     1    17 1   
     4     2     3 ar  
     5     2    18 1   
     6     3    10 1   
     7     3    16 ar  
     8     4     9 1   
     9     4    11 1   
    10     5    11 1   
    11     5    13 1   
    12     5    19 1   
    13     5    20 1   
    14     6     7 ar  
    15     6     8 1   
    16     6    16 ar  
    17     7    21 1   
    18     8    12 2   
    19     8    13 1   
    20     9    22 1   
    21     9    23 1   
    22     9    24 1   
    23    10    25 1   
    24    11    14 2   
    25    13    15 1   
    26    15    26 1   
    27    15    27 1   
    28    15    28 1   
    29    16    29 1   
@<TRIPOS>SUBSTRUCTURE
     1 VEC         1 TEMP              0 ****  ****    0 ROOT
