@<TRIPOS>MOLECULE
VEC
   29    29     1     0     0
SMALL
abcg2


@<TRIPOS>ATOM
      1 C7           0.6720    13.7290   -35.7480 ca         1 VEC      -0.076000
      2 C8           0.0430    12.8220   -34.9030 ca         1 VEC      -0.183000
      3 C9          -1.3500    12.7900   -34.8430 ca         1 VEC       0.132100
      4 O1          -1.9470    18.6830   -38.3320 os         1 VEC      -0.448100
      5 C1          -2.9630    16.6250   -39.2750 c3         1 VEC      -0.012000
      6 C5          -1.4650    14.5570   -36.4760 ca         1 VEC      -0.103600
      7 C6          -0.0710    14.5920   -36.5430 ca         1 VEC      -0.126000
      8 C4          -2.3140    15.5290   -37.2350 c          1 VEC       0.598700
      9 C3          -0.6160    18.1940   -38.5950 c3         1 VEC       0.175900
     10 O3          -2.0270    11.9220   -34.0380 oh         1 VEC      -0.532100
     11 C2          -3.0570    18.0200   -38.6750 c          1 VEC       0.613100
     12 O2          -3.1430    16.2240   -36.6400 o          1 VEC      -0.569100
     13 N           -2.1270    15.6630   -38.5700 n          1 VEC      -0.414800
     14 O           -4.1200    18.5890   -38.5730 o          1 VEC      -0.423000
     15 C           -1.4060    14.7170   -39.4170 c3         1 VEC       0.092300
     16 C10         -2.1040    13.6650   -35.6190 ca         1 VEC      -0.096000
     17 H1           1.7530    13.7600   -35.7850 ha         1 VEC       0.118000
     18 H2           0.6240    12.1440   -34.2900 ha         1 VEC       0.117000
     19 H3          -3.9890    16.2630   -39.3530 h1         1 VEC       0.071700
     20 H4          -2.5680    16.7280   -40.2870 h1         1 VEC       0.071700
     21 H5           0.4290    15.2910   -37.2000 ha         1 VEC       0.117000
     22 H6           0.0110    19.0810   -38.6330 h1         1 VEC       0.042367
     23 H7          -0.2910    17.5470   -37.7840 h1         1 VEC       0.042367
     24 H8          -0.5640    17.6720   -39.5480 h1         1 VEC       0.042367
     25 H9          -1.4040    11.3710   -33.5440 ho         1 VEC       0.465000
     26 H10         -1.0140    13.9010   -38.8210 h1         1 VEC       0.045700
     27 H11         -2.0890    14.3080   -40.1640 h1         1 VEC       0.045700
     28 H12         -0.5810    15.2160   -39.9280 h1         1 VEC       0.045700
     29 H13         -3.1840    13.6440   -35.5540 ha         1 VEC       0.147000
@<TRIPOS>BOND
     1     1     2 ar  
     2     1     7 ar  
     3     1    17 1   
     4     2     3 ar  
     5     2    18 1   
     6     3    10 1   
     7     3    16 ar  
     8     4     9 1   
     9     4    11 1   
    10     5    11 1   
    11     5    13 1   
    12     5    19 1   
    13     5    20 1   
    14     6     7 ar  
    15     6     8 1   
    16     6    16 ar  
    17     7    21 1   
    18     8    12 2   
    19     8    13 1   
    20     9    22 1   
    21     9    23 1   
    22     9    24 1   
    23    10    25 1   
    24    11    14 2   
    25    13    15 1   
    26    15    26 1   
    27    15    27 1   
    28    15    28 1   
    29    16    29 1   
@<TRIPOS>SUBSTRUCTURE
     1 VEC         1 TEMP              0 ****  ****    0 ROOT
