@<TRIPOS>MOLECULE
VED
   46    49     1     0     0
SMALL
No Charge or Current Charge


@<TRIPOS>ATOM
      1 C10         21.7790    -5.7530     0.3490 ca         1 VED      -0.149600
      2 C17         19.5780   -11.5490     4.2710 ca         1 VED      -0.096000
      3 C20         17.8590   -14.8060     5.0540 ca         1 VED      -0.194000
      4 C21         17.7320   -15.7780     6.0700 ca         1 VED       0.126100
      5 C24         18.1120   -15.4620     7.3830 ca         1 VED      -0.169000
      6 C26         18.7410   -13.2250     6.6740 ca         1 VED      -0.144000
      7 C28         17.6670   -11.4330     2.1670 ca         1 VED      -0.051000
      8 C02         17.1940    -8.1680     0.3080 c          1 VED       0.728000
      9 C04         19.1270    -9.4540     1.3240 cc         1 VED      -0.046400
     10 C05         20.2960    -8.9450     1.9160 cd         1 VED       0.095900
     11 C06         21.2020    -7.8030     1.6040 ca         1 VED      -0.072800
     12 C07         22.4210    -7.6750     2.3090 ca         1 VED      -0.120000
     13 C08         23.3050    -6.6200     2.0420 ca         1 VED      -0.173000
     14 C09         22.9910    -5.6650     1.0660 ca         1 VED      -0.086000
     15 C11         21.4290    -4.7200    -0.7070 c          1 VED       0.710600
     16 C14         20.8940    -6.8210     0.6320 ca         1 VED      -0.036000
     17 C16         19.6570   -10.6080     3.2400 ca         1 VED       0.043100
     18 C18         18.5010   -12.4800     4.2600 cp         1 VED      -0.081000
     19 C19         18.3650   -13.5120     5.3380 cp         1 VED       0.048000
     20 C23         16.8260   -17.4740     4.5200 c3         1 VED       0.151900
     21 C25         18.6160   -14.1890     7.6880 ca         1 VED      -0.085000
     22 C27         17.5540   -12.4000     3.1910 ca         1 VED      -0.145000
     23 C29         18.7470   -10.5410     2.2190 ca         1 VED      -0.072800
     24 O01         16.1260    -8.6780     0.6120 o          1 VED      -0.724500
     25 O12         20.5230    -4.9690    -1.4890 o          1 VED      -0.718500
     26 O13         22.0730    -3.6810    -0.7460 o          1 VED      -0.718500
     27 O15         20.5930    -9.6470     3.0620 os         1 VED      -0.189200
     28 O30         17.3890    -6.9620     0.3220 o          1 VED      -0.724500
     29 H171        20.3350   -11.5670     5.0490 ha         1 VED       0.110000
     30 H201        17.5830   -15.0410     4.0320 ha         1 VED       0.121000
     31 H241        18.0150   -16.2080     8.1670 ha         1 VED       0.109000
     32 H261        19.1210   -12.2400     6.9310 ha         1 VED       0.124000
     33 H281        16.9340   -11.3830     1.3660 ha         1 VED       0.132000
     34 H032        18.0220   -10.0480    -0.3550 hc         1 VED       0.037200
     35 H031        19.1100    -8.6340    -0.6320 hc         1 VED       0.037200
     36 H071        22.7040    -8.4020     3.0670 ha         1 VED       0.084000
     37 H081        24.2400    -6.5440     2.5910 ha         1 VED       0.071000
     38 H091        23.6920    -4.8560     0.8700 ha         1 VED       0.113000
     39 H141        19.9510    -6.8540     0.1030 ha         1 VED       0.186000
     40 H233        16.4730   -18.5130     4.5550 h1         1 VED       0.035367
     41 H231        16.0030   -16.8480     4.1510 h1         1 VED       0.035367
     42 H232        17.6580   -17.4210     3.8070 h1         1 VED       0.035367
     43 H251        18.9070   -13.9470     8.7080 ha         1 VED       0.101000
     44 H271        16.7110   -13.0860     3.1640 ha         1 VED       0.091000
     45 C03         18.3920    -9.0990     0.0490 c3         1 VED      -0.170200
     46 O22         17.2460   -17.0470     5.8290 os         1 VED      -0.357100
@<TRIPOS>BOND
     1     1    14 ar  
     2     1    15 1   
     3     1    16 ar  
     4     2    17 ar  
     5     2    18 ar  
     6     2    29 1   
     7     3     4 ar  
     8     3    19 ar  
     9     3    30 1   
    10     4     5 ar  
    11     4    46 1   
    12     5    21 ar  
    13     5    31 1   
    14     6    19 ar  
    15     6    21 ar  
    16     6    32 1   
    17     7    22 ar  
    18     7    23 ar  
    19     7    33 1   
    20     8    24 1   
    21     8    28 1   
    22     8    45 1   
    23     9    10 2   
    24     9    23 1   
    25     9    45 1   
    26    10    11 1   
    27    10    27 1   
    28    11    12 ar  
    29    11    16 ar  
    30    12    13 ar  
    31    12    36 1   
    32    13    14 ar  
    33    13    37 1   
    34    14    38 1   
    35    15    25 1   
    36    15    26 1   
    37    16    39 1   
    38    17    23 ar  
    39    17    27 1   
    40    18    19 1   
    41    18    22 ar  
    42    20    40 1   
    43    20    41 1   
    44    20    42 1   
    45    20    46 1   
    46    21    43 1   
    47    22    44 1   
    48    34    45 1   
    49    35    45 1   
@<TRIPOS>SUBSTRUCTURE
     1 VED         1 TEMP              0 ****  ****    0 ROOT
