@<TRIPOS>MOLECULE
VED
   46    49     1     0     0
SMALL
bcc


@<TRIPOS>ATOM
      1 C10         21.6190    -5.7820     0.5390 ca         1 VED      -0.149600
      2 C17         19.5270   -11.5140     4.3190 ca         1 VED      -0.114000
      3 C20         17.9050   -14.7250     5.0620 ca         1 VED      -0.212000
      4 C21         17.7400   -15.6630     6.0750 ca         1 VED       0.126100
      5 C24         17.9840   -15.3010     7.4020 ca         1 VED      -0.187000
      6 C26         18.5520   -13.0690     6.6860 ca         1 VED      -0.162000
      7 C28         17.6910   -11.4910     2.1630 ca         1 VED      -0.069000
      8 C02         17.3190    -8.2090     0.1540 c          1 VED       0.938600
      9 C04         19.1860    -9.5030     1.3510 cc         1 VED      -0.046400
     10 C05         20.2860    -8.9920     1.9690 cd         1 VED       0.095900
     11 C06         21.2080    -7.9220     1.6160 ca         1 VED      -0.072800
     12 C07         22.5620    -8.0040     1.9570 ca         1 VED      -0.138000
     13 C08         23.4300    -6.9900     1.5860 ca         1 VED      -0.191000
     14 C09         22.9660    -5.8910     0.8740 ca         1 VED      -0.104000
     15 C11         21.0930    -4.5670    -0.2270 c          1 VED       0.921200
     16 C14         20.7510    -6.7960     0.9270 ca         1 VED      -0.054000
     17 C16         19.6230   -10.6120     3.2780 ca         1 VED       0.043100
     18 C18         18.4780   -12.4320     4.2740 cp         1 VED      -0.081000
     19 C19         18.3110   -13.4200     5.3610 cp         1 VED       0.048000
     20 C23         17.0760   -17.3570     4.5500 c3         1 VED       0.128700
     21 C25         18.3860   -14.0110     7.6940 ca         1 VED      -0.103000
     22 C27         17.5760   -12.4060     3.1940 ca         1 VED      -0.163000
     23 C29         18.7370   -10.5690     2.2030 ca         1 VED      -0.072800
     24 O01         16.4680    -8.3440    -0.7450 o          1 VED      -0.829800
     25 O12         19.8610    -4.5140    -0.4030 o          1 VED      -0.823800
     26 O13         21.9440    -3.7420    -0.6090 o          1 VED      -0.823800
     27 O15         20.5650    -9.6600     3.1330 os         1 VED      -0.189200
     28 O30         17.3010    -7.3890     1.0920 o          1 VED      -0.829800
     29 H171        20.2510   -11.5230     5.1240 ha         1 VED       0.128000
     30 H201        17.7450   -14.9970     4.0270 ha         1 VED       0.139000
     31 H241        17.8550   -16.0330     8.1900 ha         1 VED       0.127000
     32 H261        18.8430   -12.0580     6.9390 ha         1 VED       0.142000
     33 H281        16.9760   -11.4890     1.3510 ha         1 VED       0.150000
     34 H032        18.2900   -10.0480    -0.4840 hc         1 VED       0.037200
     35 H031        19.2960    -8.6250    -0.5800 hc         1 VED       0.037200
     36 H071        22.9420    -8.8620     2.4950 ha         1 VED       0.102000
     37 H081        24.4770    -7.0610     1.8500 ha         1 VED       0.089000
     38 H091        23.6550    -5.1100     0.5820 ha         1 VED       0.131000
     39 H141        19.6950    -6.6970     0.7180 ha         1 VED       0.204000
     40 H233        16.7800   -18.4010     4.6140 h1         1 VED       0.035367
     41 H231        16.2560   -16.7850     4.1070 h1         1 VED       0.035367
     42 H232        17.9500   -17.2800     3.8970 h1         1 VED       0.035367
     43 H251        18.5660   -13.7310     8.7240 ha         1 VED       0.119000
     44 H271        16.7500   -13.1070     3.1780 ha         1 VED       0.109000
     45 C03         18.5630    -9.1360     0.0520 c3         1 VED      -0.170200
     46 O22         17.3600   -16.9390     5.8690 os         1 VED      -0.333900
@<TRIPOS>BOND
     1     1    14 ar  
     2     1    15 1   
     3     1    16 ar  
     4     2    17 ar  
     5     2    18 ar  
     6     2    29 1   
     7     3     4 ar  
     8     3    19 ar  
     9     3    30 1   
    10     4     5 ar  
    11     4    46 1   
    12     5    21 ar  
    13     5    31 1   
    14     6    19 ar  
    15     6    21 ar  
    16     6    32 1   
    17     7    22 ar  
    18     7    23 ar  
    19     7    33 1   
    20     8    24 1   
    21     8    28 1   
    22     8    45 1   
    23     9    10 2   
    24     9    23 1   
    25     9    45 1   
    26    10    11 1   
    27    10    27 1   
    28    11    12 ar  
    29    11    16 ar  
    30    12    13 ar  
    31    12    36 1   
    32    13    14 ar  
    33    13    37 1   
    34    14    38 1   
    35    15    25 1   
    36    15    26 1   
    37    16    39 1   
    38    17    23 ar  
    39    17    27 1   
    40    18    19 1   
    41    18    22 ar  
    42    20    40 1   
    43    20    41 1   
    44    20    42 1   
    45    20    46 1   
    46    21    43 1   
    47    22    44 1   
    48    34    45 1   
    49    35    45 1   
@<TRIPOS>SUBSTRUCTURE
     1 VED         1 TEMP              0 ****  ****    0 ROOT
