@<TRIPOS>MOLECULE
VEF
   17    16     1     0     0
SMALL
No Charge or Current Charge


@<TRIPOS>ATOM
      1 N           24.1480   -49.0880   -31.0380 n8         1 VEF      -1.019200
      2 C           23.4660   -45.9280   -33.2990 c          1 VEF       0.710000
      3 CA          23.9900   -47.6280   -31.3300 c3         1 VEF       0.130500
      4 CB          24.9820   -46.8050   -30.4780 c3         1 VEF      -0.104100
      5 O           24.0030   -45.3290   -34.2290 o          1 VEF      -0.709000
      6 C2          24.0790   -47.3600   -32.8780 c3         1 VEF       0.247000
      7 O2          23.4010   -48.4660   -33.4610 oh         1 VEF      -0.698500
      8 OXT         22.5140   -45.4650   -32.6790 o          1 VEF      -0.709000
      9 H           25.1170   -49.3470   -31.2630 hn         1 VEF       0.382500
     10 H2          24.0970   -49.2300   -30.0220 hn         1 VEF       0.382500
     11 HA          22.9780   -47.3450   -31.0050 h1         1 VEF       0.074700
     12 HB1         24.8050   -46.9720   -29.4080 hc         1 VEF       0.028700
     13 HB2         26.0220   -47.0760   -30.6980 hc         1 VEF       0.028700
     14 HB3         24.8600   -45.7330   -30.6740 hc         1 VEF       0.028700
     15 O1          25.4300   -47.5260   -33.3400 oh         1 VEF      -0.698500
     16 HO2         23.4850   -49.1040   -32.7020 ho         1 VEF       0.463000
     17 HO1         25.4840   -46.9390   -34.1280 ho         1 VEF       0.463000
@<TRIPOS>BOND
     1     1     3 1   
     2     1     9 1   
     3     1    10 1   
     4     2     5 1   
     5     2     6 1   
     6     2     8 1   
     7     3     4 1   
     8     3     6 1   
     9     3    11 1   
    10     4    12 1   
    11     4    13 1   
    12     4    14 1   
    13     6     7 1   
    14     6    15 1   
    15     7    16 1   
    16    15    17 1   
@<TRIPOS>SUBSTRUCTURE
     1 VEF         1 TEMP              0 ****  ****    0 ROOT
