@<TRIPOS>MOLECULE
VEF
   17    16     1     0     0
SMALL
abcg2


@<TRIPOS>ATOM
      1 N           24.2380   -49.0680   -31.0650 n8         1 VEF      -1.019200
      2 C           23.5230   -46.0240   -33.2420 c          1 VEF       0.710000
      3 CA          24.0380   -47.6410   -31.3140 c3         1 VEF       0.130500
      4 CB          25.0180   -46.7360   -30.5820 c3         1 VEF      -0.104100
      5 O           24.3090   -45.3710   -33.9680 o          1 VEF      -0.709000
      6 C2          24.0470   -47.4360   -32.8400 c3         1 VEF       0.247000
      7 O2          23.1950   -48.3890   -33.4100 oh         1 VEF      -0.698500
      8 OXT         22.4090   -45.6800   -32.8300 o          1 VEF      -0.709000
      9 H           25.2230   -49.3010   -31.1200 hn         1 VEF       0.382500
     10 H2          23.9380   -49.3090   -30.1300 hn         1 VEF       0.382500
     11 HA          23.0260   -47.4060   -30.9740 h1         1 VEF       0.074700
     12 HB1         24.9260   -46.8710   -29.5040 hc         1 VEF       0.028700
     13 HB2         26.0480   -46.9590   -30.8620 hc         1 VEF       0.028700
     14 HB3         24.8340   -45.6810   -30.7920 hc         1 VEF       0.028700
     15 O1          25.3490   -47.5670   -33.3310 oh         1 VEF      -0.698500
     16 HO2         23.2840   -49.1650   -32.8280 ho         1 VEF       0.463000
     17 HO1         25.4580   -46.7370   -33.8400 ho         1 VEF       0.463000
@<TRIPOS>BOND
     1     1     3 1   
     2     1     9 1   
     3     1    10 1   
     4     2     5 1   
     5     2     6 1   
     6     2     8 1   
     7     3     4 1   
     8     3     6 1   
     9     3    11 1   
    10     4    12 1   
    11     4    13 1   
    12     4    14 1   
    13     6     7 1   
    14     6    15 1   
    15     7    16 1   
    16    15    17 1   
@<TRIPOS>SUBSTRUCTURE
     1 VEF         1 TEMP              0 ****  ****    0 ROOT
