@<TRIPOS>MOLECULE
VEG
   65    66     1     0     0
SMALL
No Charge or Current Charge


@<TRIPOS>ATOM
      1 N1           7.4820    -0.8700    21.7900 n          1 VEG      -0.246400
      2 C4           7.9320     2.3350    24.6020 c3         1 VEG       0.116000
      3 C5           7.2150     1.6740    22.2650 c          1 VEG       0.595100
      4 C6           6.9860     0.4660    21.2980 c3         1 VEG       0.096000
      5 C7           6.6220    -2.0040    21.6740 c          1 VEG       0.606100
      6 C8           7.1850    -3.4200    21.9240 c3         1 VEG      -0.152400
      7 C10          8.8550    -0.9670    22.2150 ca         1 VEG      -0.069000
      8 C13         11.5630    -1.3680    23.0170 ca         1 VEG      -0.054300
      9 C15          9.1620    -1.3910    23.5210 ca         1 VEG      -0.104000
     10 C17         13.2710    -0.5710    24.7080 c3         1 VEG      -0.084433
     11 C20          7.4190     0.7620    19.8560 ca         1 VEG      -0.133300
     12 C21          8.5060     1.6170    19.5640 ca         1 VEG       0.376900
     13 C22          8.2510     1.3210    17.2810 ca         1 VEG       0.342900
     14 C24          6.7300     0.1740    18.7780 ca         1 VEG      -0.050000
     15 O3           5.4490    -1.8860    21.3400 o          1 VEG      -0.587100
     16 C9           6.6780    -4.0240    23.2530 c3         1 VEG      -0.083100
     17 C14         10.4960    -1.5600    23.9230 ca         1 VEG      -0.102000
     18 C16         13.0250    -1.5280    23.5090 c3         1 VEG       0.001300
     19 C19         13.2510    -2.9940    23.9640 c3         1 VEG      -0.084433
     20 C18         14.0760    -1.1930    22.4130 c3         1 VEG      -0.084433
     21 C12         11.2350    -1.0560    21.6750 ca         1 VEG      -0.102000
     22 C11          9.8990    -0.8780    21.2800 ca         1 VEG      -0.104000
     23 N2           8.9220     1.8930    18.3060 nb         1 VEG      -0.671000
     24 C23          7.1580     0.4620    17.4730 ca         1 VEG      -0.167000
     25 O2           7.0400     2.8350    21.9200 o          1 VEG      -0.569100
     26 N            7.6120     1.3670    23.5510 ns         1 VEG      -0.508900
     27 C3           9.4500     2.4970    24.8030 c3         1 VEG      -0.163400
     28 C2          10.1320     3.0900    23.5720 c          1 VEG       0.613100
     29 O1          10.1390     4.2870    23.3190 o          1 VEG      -0.483000
     30 O           10.7740     2.1300    22.8320 os         1 VEG      -0.444100
     31 C1          11.5680     2.5280    21.6980 c3         1 VEG       0.162600
     32 C           12.9190     3.0730    22.2020 c3         1 VEG      -0.123100
     33 H1           7.4820     3.3090    24.3670 h1         1 VEG       0.061700
     34 H2           7.4820     1.9820    25.5400 h1         1 VEG       0.061700
     35 H3           5.8910     0.4210    21.2760 h1         1 VEG       0.065700
     36 H4           8.2790    -3.4230    21.9360 hc         1 VEG       0.068200
     37 H5           6.8410    -4.0700    21.1110 hc         1 VEG       0.068200
     38 H6           8.3680    -1.5540    24.2460 ha         1 VEG       0.123000
     39 H7          12.6450    -0.8280    25.5700 hc         1 VEG       0.036589
     40 H8          14.3160    -0.6160    25.0390 hc         1 VEG       0.036589
     41 H9          13.0480     0.4650    24.4270 hc         1 VEG       0.036589
     42 H10          9.0790     2.0840    20.3620 h4         1 VEG       0.021100
     43 H11          8.6020     1.5590    16.2780 h4         1 VEG       0.016100
     44 H12          5.8850    -0.4900    18.9470 ha         1 VEG       0.115000
     45 H13          7.0920    -5.0290    23.3980 hc         1 VEG       0.040700
     46 H14          6.9750    -3.4060    24.1080 hc         1 VEG       0.040700
     47 H15          5.5840    -4.1020    23.2510 hc         1 VEG       0.040700
     48 H16         10.6930    -1.8460    24.9520 ha         1 VEG       0.118000
     49 H17         12.5890    -3.2640    24.7950 hc         1 VEG       0.036589
     50 H18         13.0560    -3.6900    23.1380 hc         1 VEG       0.036589
     51 H19         14.2840    -3.1470    24.3000 hc         1 VEG       0.036589
     52 H20         15.0950    -1.2830    22.8070 hc         1 VEG       0.036589
     53 H21         13.9950    -1.8800    21.5610 hc         1 VEG       0.036589
     54 H22         13.9510    -0.1660    22.0470 hc         1 VEG       0.036589
     55 H23         12.0020    -0.9460    20.9140 ha         1 VEG       0.118000
     56 H24          9.6860    -0.6790    20.2340 ha         1 VEG       0.123000
     57 H25          6.6520     0.0270    16.6150 ha         1 VEG       0.122000
     58 H26          7.7540     0.3830    23.7470 hn         1 VEG       0.316500
     59 H27          9.8690     1.5060    25.0120 hc         1 VEG       0.076700
     60 H28          9.6150     3.1670    25.6540 hc         1 VEG       0.076700
     61 H29         11.0520     3.2830    21.0890 h1         1 VEG       0.060700
     62 H30         11.7620     1.6600    21.0560 h1         1 VEG       0.060700
     63 H31         13.5660     3.3150    21.3510 hc         1 VEG       0.044700
     64 H32         12.7850     3.9850    22.7950 hc         1 VEG       0.044700
     65 H33         13.4310     2.3260    22.8180 hc         1 VEG       0.044700
@<TRIPOS>BOND
     1     1     4 1   
     2     1     5 1   
     3     1     7 1   
     4     2    26 1   
     5     2    27 1   
     6     2    33 1   
     7     2    34 1   
     8     3     4 1   
     9     3    25 2   
    10     3    26 1   
    11     4    11 1   
    12     4    35 1   
    13     5     6 1   
    14     5    15 2   
    15     6    16 1   
    16     6    36 1   
    17     6    37 1   
    18     7     9 ar  
    19     7    22 ar  
    20     8    17 ar  
    21     8    18 1   
    22     8    21 ar  
    23     9    17 ar  
    24     9    38 1   
    25    10    18 1   
    26    10    39 1   
    27    10    40 1   
    28    10    41 1   
    29    11    12 ar  
    30    11    14 ar  
    31    12    23 ar  
    32    12    42 1   
    33    13    23 ar  
    34    13    24 ar  
    35    13    43 1   
    36    14    24 ar  
    37    14    44 1   
    38    16    45 1   
    39    16    46 1   
    40    16    47 1   
    41    17    48 1   
    42    18    19 1   
    43    18    20 1   
    44    19    49 1   
    45    19    50 1   
    46    19    51 1   
    47    20    52 1   
    48    20    53 1   
    49    20    54 1   
    50    21    22 ar  
    51    21    55 1   
    52    22    56 1   
    53    24    57 1   
    54    26    58 1   
    55    27    28 1   
    56    27    59 1   
    57    27    60 1   
    58    28    29 2   
    59    28    30 1   
    60    30    31 1   
    61    31    32 1   
    62    31    61 1   
    63    31    62 1   
    64    32    63 1   
    65    32    64 1   
    66    32    65 1   
@<TRIPOS>SUBSTRUCTURE
     1 VEG         1 TEMP              0 ****  ****    0 ROOT
