@<TRIPOS>MOLECULE
VEG
   65    66     1     0     0
SMALL
bcc


@<TRIPOS>ATOM
      1 N1           7.8150    -1.1740    21.3520 n          1 VEG      -0.406000
      2 C4           8.3720     2.4120    24.0280 c3         1 VEG       0.116000
      3 C5           7.9050     1.2160    21.9400 c          1 VEG       0.662100
      4 C6           7.0700     0.0880    21.3090 c3         1 VEG       0.096000
      5 C7           7.1350    -2.2920    20.9550 c          1 VEG       0.673100
      6 C8           7.8810    -3.6070    20.9160 c3         1 VEG      -0.152400
      7 C10          9.0530    -1.2550    22.0530 ca         1 VEG       0.023600
      8 C13         11.4790    -1.3500    23.4770 ca         1 VEG      -0.054300
      9 C15          9.0740    -1.6520    23.3860 ca         1 VEG      -0.122000
     10 C17         12.6610    -0.3080    25.4030 c3         1 VEG      -0.084433
     11 C20          6.6970     0.4900    19.9070 ca         1 VEG      -0.198600
     12 C21          7.5950     0.3780    18.8520 ca         1 VEG       0.442200
     13 C22          6.1460     1.3090    17.3720 ca         1 VEG       0.408200
     14 C24          5.4590     1.0470    19.6350 ca         1 VEG      -0.068000
     15 O3           5.9660    -2.2210    20.6190 o          1 VEG      -0.587100
     16 C9           7.3940    -4.5700    21.9950 c3         1 VEG      -0.083100
     17 C14         10.2700    -1.7030    24.0800 ca         1 VEG      -0.120000
     18 C16         12.7670    -1.3610    24.2920 c3         1 VEG       0.001300
     19 C19         12.9740    -2.7480    24.9140 c3         1 VEG      -0.084433
     20 C18         13.9930    -1.0280    23.4410 c3         1 VEG      -0.084433
     21 C12         11.4370    -0.9630    22.1410 ca         1 VEG      -0.120000
     22 C11         10.2450    -0.9130    21.4360 ca         1 VEG      -0.122000
     23 N2           7.3330     0.7700    17.6140 nb         1 VEG      -0.671000
     24 C23          5.1740     1.4680    18.3460 ca         1 VEG      -0.250300
     25 O2           8.7150     1.8490    21.2960 o          1 VEG      -0.569100
     26 N            7.6490     1.4380    23.2370 ns         1 VEG      -0.575900
     27 C3           9.8780     2.1540    24.0940 c3         1 VEG      -0.163400
     28 C2          10.6700     2.9400    23.0800 c          1 VEG       0.662100
     29 O1          10.4530     4.0880    22.8000 o          1 VEG      -0.532000
     30 O           11.6910     2.2330    22.5990 os         1 VEG      -0.420900
     31 C1          12.5660     2.8690    21.6680 c3         1 VEG       0.139400
     32 C           13.6370     3.6830    22.3630 c3         1 VEG      -0.123100
     33 H1           8.1810     3.4200    23.6540 h1         1 VEG       0.061700
     34 H2           7.9490     2.3590    25.0280 h1         1 VEG       0.061700
     35 H3           6.1440    -0.0300    21.8830 h1         1 VEG       0.065700
     36 H4           8.9590    -3.4760    20.9890 hc         1 VEG       0.068200
     37 H5           7.6800    -4.0370    19.9330 hc         1 VEG       0.068200
     38 H6           8.1500    -1.9140    23.8870 ha         1 VEG       0.141000
     39 H7          11.8140    -0.4860    26.0660 hc         1 VEG       0.036589
     40 H8          13.5640    -0.3130    26.0160 hc         1 VEG       0.036589
     41 H9          12.5480     0.6910    24.9790 hc         1 VEG       0.036589
     42 H10          8.5720    -0.0650    19.0130 h4         1 VEG       0.021100
     43 H11          5.9550     1.6260    16.3520 h4         1 VEG       0.016100
     44 H12          4.7180     1.1510    20.4190 ha         1 VEG       0.133000
     45 H13          7.8530    -5.5480    21.8570 hc         1 VEG       0.040700
     46 H14          7.6560    -4.2210    22.9930 hc         1 VEG       0.040700
     47 H15          6.3140    -4.7000    21.9520 hc         1 VEG       0.040700
     48 H16         10.2450    -2.0110    25.1170 ha         1 VEG       0.136000
     49 H17         12.1550    -3.0320    25.5760 hc         1 VEG       0.036589
     50 H18         13.0620    -3.5180    24.1450 hc         1 VEG       0.036589
     51 H19         13.8900    -2.7650    25.5080 hc         1 VEG       0.036589
     52 H20         14.8910    -1.0540    24.0600 hc         1 VEG       0.036589
     53 H21         14.1360    -1.7410    22.6280 hc         1 VEG       0.036589
     54 H22         13.9320    -0.0260    23.0120 hc         1 VEG       0.036589
     55 H23         12.3430    -0.6820    21.6230 ha         1 VEG       0.136000
     56 H24         10.2480    -0.6000    20.4010 ha         1 VEG       0.141000
     57 H25          4.2170     1.9060    18.0990 ha         1 VEG       0.140000
     58 H26          6.9850     0.8530    23.7130 hn         1 VEG       0.316500
     59 H27         10.0900     1.0870    24.0270 hc         1 VEG       0.076700
     60 H28         10.2390     2.4790    25.0750 hc         1 VEG       0.076700
     61 H29         11.9950     3.4820    20.9700 h1         1 VEG       0.060700
     62 H30         13.0150     2.0500    21.1050 h1         1 VEG       0.060700
     63 H31         14.3190     4.1000    21.6210 hc         1 VEG       0.044700
     64 H32         13.2100     4.5130    22.9240 hc         1 VEG       0.044700
     65 H33         14.2240     3.0670    23.0440 hc         1 VEG       0.044700
@<TRIPOS>BOND
     1     1     4 1   
     2     1     5 1   
     3     1     7 1   
     4     2    26 1   
     5     2    27 1   
     6     2    33 1   
     7     2    34 1   
     8     3     4 1   
     9     3    25 2   
    10     3    26 1   
    11     4    11 1   
    12     4    35 1   
    13     5     6 1   
    14     5    15 2   
    15     6    16 1   
    16     6    36 1   
    17     6    37 1   
    18     7     9 ar  
    19     7    22 ar  
    20     8    17 ar  
    21     8    18 1   
    22     8    21 ar  
    23     9    17 ar  
    24     9    38 1   
    25    10    18 1   
    26    10    39 1   
    27    10    40 1   
    28    10    41 1   
    29    11    12 ar  
    30    11    14 ar  
    31    12    23 ar  
    32    12    42 1   
    33    13    23 ar  
    34    13    24 ar  
    35    13    43 1   
    36    14    24 ar  
    37    14    44 1   
    38    16    45 1   
    39    16    46 1   
    40    16    47 1   
    41    17    48 1   
    42    18    19 1   
    43    18    20 1   
    44    19    49 1   
    45    19    50 1   
    46    19    51 1   
    47    20    52 1   
    48    20    53 1   
    49    20    54 1   
    50    21    22 ar  
    51    21    55 1   
    52    22    56 1   
    53    24    57 1   
    54    26    58 1   
    55    27    28 1   
    56    27    59 1   
    57    27    60 1   
    58    28    29 2   
    59    28    30 1   
    60    30    31 1   
    61    31    32 1   
    62    31    61 1   
    63    31    62 1   
    64    32    63 1   
    65    32    64 1   
    66    32    65 1   
@<TRIPOS>SUBSTRUCTURE
     1 VEG         1 TEMP              0 ****  ****    0 ROOT
