@<TRIPOS>MOLECULE
VEH
   79    83     1     0     0
SMALL
abcg2


@<TRIPOS>ATOM
      1 C1         -11.1900   -50.8640    22.5690 c3         1 VEH       0.178100
      2 O4         -10.5090   -47.7300    20.4620 o          1 VEH      -0.540000
      3 O5          -8.9190   -49.4310    21.3730 o          1 VEH      -0.540000
      4 C7          -8.8290   -47.7790    23.7120 ca         1 VEH      -0.043000
      5 C8          -8.6080   -47.0040    24.8770 ca         1 VEH       0.038000
      6 C9          -9.7030   -46.3130    25.4190 ca         1 VEH      -0.062000
      7 C10        -10.9260   -46.3670    24.7700 ca         1 VEH      -0.092300
      8 C11        -12.2000   -45.6870    25.1600 c5         1 VEH       0.139300
      9 C13        -14.4820   -45.6170    23.9790 c3         1 VEH       0.136700
     10 C15        -15.2940   -46.1300    25.1910 c3         1 VEH      -0.108100
     11 C16        -14.5600   -44.1030    23.8770 cx         1 VEH      -0.117700
     12 C19        -12.5270   -46.9000    23.1630 c          1 VEH       0.574600
     13 C21        -11.1100   -47.0530    23.5770 ca         1 VEH      -0.090600
     14 C22         -7.2880   -47.0440    25.4940 cc         1 VEH      -0.264000
     15 C24         -5.0320   -47.6850    26.1880 cc         1 VEH       0.681300
     16 N25         -3.8060   -48.2250    26.4510 nu         1 VEH      -0.886800
     17 C27         -1.9190   -49.6960    26.1690 ca         1 VEH      -0.187000
     18 C30         -3.4290   -51.0560    24.3440 ca         1 VEH       0.344500
     19 C32         -4.2970   -51.7830    23.3460 c          1 VEH       0.495600
     20 C35         -6.5880   -51.9960    22.4670 c3         1 VEH       0.094000
     21 N2         -11.3680   -49.7210    21.6490 n7         1 VEH      -0.855300
     22 S3         -10.1360   -48.6650    21.4930 sy         1 VEH       1.165600
     23 C6         -10.0260   -47.7490    23.0250 ca         1 VEH      -0.222500
     24 N12        -13.1050   -46.0730    24.0650 n          1 VEH      -0.400800
     25 C17        -14.1970   -43.4740    22.5760 cx         1 VEH      -0.135900
     26 C18        -15.6510   -43.5260    23.0510 cx         1 VEH      -0.135900
     27 S23         -6.1830   -48.3320    25.0760 ss         1 VEH       0.058600
     28 C26         -3.2160   -49.2900    25.7990 ca         1 VEH       0.606900
     29 C28         -1.4090   -50.8360    25.5940 ca         1 VEH      -0.045000
     30 C29         -2.1750   -51.5370    24.6530 ca         1 VEH      -0.141000
     31 N31         -3.9470   -49.9640    24.9250 nb         1 VEH      -0.749000
     32 O33         -3.8020   -52.5750    22.5310 o          1 VEH      -0.607100
     33 N34         -5.5870   -51.4200    23.3480 ns         1 VEH      -0.471900
     34 C36         -7.2630   -53.2400    23.0250 c3         1 VEH      -0.111400
     35 C37         -8.0520   -53.9590    21.9060 c3         1 VEH       0.146800
     36 N38         -9.0140   -54.9400    22.4140 n3         1 VEH      -0.699600
     37 C39         -9.6370   -55.6160    21.2680 c3         1 VEH       0.136600
     38 C40         -8.3770   -55.9480    23.2570 c3         1 VEH       0.136600
     39 N41         -5.4320   -46.5910    26.8070 nd         1 VEH      -0.736000
     40 C42         -6.7020   -46.2360    26.4500 cd         1 VEH       0.361300
     41 C43         -7.2980   -45.0240    27.1060 c3         1 VEH      -0.129400
     42 H1         -12.0990   -51.4580    22.5160 h1         1 VEH       0.053700
     43 H2         -10.3430   -51.4570    22.2310 h1         1 VEH       0.053700
     44 H3         -10.9770   -50.5360    23.5900 h1         1 VEH       0.053700
     45 H4          -8.0130   -48.3540    23.3020 ha         1 VEH       0.144000
     46 H5          -9.6080   -45.7610    26.3390 ha         1 VEH       0.126000
     47 H6         -12.0850   -44.6010    25.1530 h1         1 VEH       0.071200
     48 H7         -12.6260   -46.0110    26.1120 h1         1 VEH       0.071200
     49 H8         -14.9340   -46.1070    23.1180 h1         1 VEH       0.089700
     50 H9         -16.3530   -45.9300    25.0350 hc         1 VEH       0.043367
     51 H10        -15.1370   -47.2060    25.2940 hc         1 VEH       0.043367
     52 H11        -14.9560   -45.6530    26.1120 hc         1 VEH       0.043367
     53 H12        -14.3610   -43.6420    24.8390 hc         1 VEH       0.079700
     54 H13         -3.2640   -47.7190    27.1440 hn         1 VEH       0.524000
     55 H14         -1.3470   -49.0950    26.8640 ha         1 VEH       0.129000
     56 H15         -6.0820   -52.2550    21.5360 h1         1 VEH       0.076700
     57 H16         -7.3200   -51.2190    22.2440 h1         1 VEH       0.076700
     58 H17        -12.2190   -49.1840    21.8480 hn         1 VEH       0.507000
     59 H18        -13.9540   -44.0570    21.6990 hc         1 VEH       0.076700
     60 H19        -13.7180   -42.5030    22.6040 hc         1 VEH       0.076700
     61 H20        -16.1350   -42.5770    23.2430 hc         1 VEH       0.076700
     62 H21        -16.3180   -44.1720    22.4890 hc         1 VEH       0.076700
     63 H22         -0.4010   -51.1670    25.8060 ha         1 VEH       0.130000
     64 H23         -1.7920   -52.4520    24.2190 ha         1 VEH       0.153000
     65 H24         -5.8750   -50.8120    24.1010 hn         1 VEH       0.328500
     66 H25         -7.9380   -53.0290    23.8570 hc         1 VEH       0.047200
     67 H26         -6.5040   -53.9290    23.4020 hc         1 VEH       0.047200
     68 H27         -7.3080   -54.4090    21.2310 h1         1 VEH       0.045200
     69 H28         -8.6390   -53.1740    21.4180 h1         1 VEH       0.045200
     70 H30        -10.3070   -56.3990    21.6190 h1         1 VEH       0.032200
     71 H31        -10.1600   -54.8860    20.6430 h1         1 VEH       0.032200
     72 H32         -8.8740   -56.0890    20.6250 h1         1 VEH       0.032200
     73 H33         -7.9350   -55.4970    24.1420 h1         1 VEH       0.032200
     74 H34         -9.1290   -56.6650    23.5920 h1         1 VEH       0.032200
     75 H35         -7.6120   -56.5320    22.7180 h1         1 VEH       0.032200
     76 H36         -6.5340   -44.5860    27.7490 hc         1 VEH       0.055700
     77 H37         -7.5000   -44.2510    26.3600 hc         1 VEH       0.055700
     78 H38         -8.1980   -45.2630    27.6670 hc         1 VEH       0.055700
     79 O20        -13.1140   -47.4930    22.2470 o          1 VEH      -0.574000
@<TRIPOS>BOND
     1     1    21 1   
     2     1    42 1   
     3     1    43 1   
     4     1    44 1   
     5     2    22 2   
     6     3    22 2   
     7     4     5 ar  
     8     4    23 ar  
     9     4    45 1   
    10     5     6 ar  
    11     5    14 1   
    12     6     7 ar  
    13     6    46 1   
    14     7     8 1   
    15     7    13 ar  
    16     8    24 1   
    17     8    47 1   
    18     8    48 1   
    19     9    10 1   
    20     9    11 1   
    21     9    24 1   
    22     9    49 1   
    23    10    50 1   
    24    10    51 1   
    25    10    52 1   
    26    11    25 1   
    27    11    26 1   
    28    11    53 1   
    29    12    13 1   
    30    12    24 1   
    31    12    79 2   
    32    13    23 ar  
    33    14    27 1   
    34    14    40 2   
    35    15    16 1   
    36    15    27 1   
    37    15    39 2   
    38    16    28 1   
    39    16    54 1   
    40    17    28 ar  
    41    17    29 ar  
    42    17    55 1   
    43    18    19 1   
    44    18    30 ar  
    45    18    31 ar  
    46    19    32 2   
    47    19    33 1   
    48    20    33 1   
    49    20    34 1   
    50    20    56 1   
    51    20    57 1   
    52    21    22 1   
    53    21    58 1   
    54    22    23 1   
    55    25    26 1   
    56    25    59 1   
    57    25    60 1   
    58    26    61 1   
    59    26    62 1   
    60    28    31 ar  
    61    29    30 ar  
    62    29    63 1   
    63    30    64 1   
    64    33    65 1   
    65    34    35 1   
    66    34    66 1   
    67    34    67 1   
    68    35    36 1   
    69    35    68 1   
    70    35    69 1   
    71    36    37 1   
    72    36    38 1   
    73    37    70 1   
    74    37    71 1   
    75    37    72 1   
    76    38    73 1   
    77    38    74 1   
    78    38    75 1   
    79    39    40 1   
    80    40    41 1   
    81    41    76 1   
    82    41    77 1   
    83    41    78 1   
@<TRIPOS>SUBSTRUCTURE
     1 VEH         1 TEMP              0 ****  ****    0 ROOT
