@<TRIPOS>MOLECULE
VEH
   79    83     1     0     0
SMALL
No Charge or Current Charge


@<TRIPOS>ATOM
      1 C1         -11.5180   -49.4590    21.4620 c3         1 VEH       0.178100
      2 O4         -10.9210   -45.8760    20.2580 o          1 VEH      -0.540000
      3 O5          -9.1770   -47.7380    20.2210 o          1 VEH      -0.540000
      4 C7          -8.9040   -47.1380    23.1890 ca         1 VEH      -0.043000
      5 C8          -8.7020   -46.9690    24.5780 ca         1 VEH       0.038000
      6 C9          -9.7870   -46.6060    25.4030 ca         1 VEH      -0.062000
      7 C10        -11.0500   -46.4090    24.8280 ca         1 VEH      -0.092300
      8 C11        -12.3280   -46.0220    25.5560 c5         1 VEH       0.139300
      9 C13        -14.7160   -45.6290    24.4900 c3         1 VEH       0.136700
     10 C15        -15.3230   -45.8880    25.8860 c3         1 VEH      -0.108100
     11 C16        -14.8900   -44.1610    24.1000 cx         1 VEH      -0.117700
     12 C19        -12.6870   -46.3430    23.1880 c          1 VEH       0.574600
     13 C21        -11.2450   -46.5770    23.4660 ca         1 VEH      -0.090600
     14 C22         -7.3770   -47.2000    25.1460 cc         1 VEH      -0.264000
     15 C24         -5.1920   -47.8490    25.8670 cc         1 VEH       0.681300
     16 N25         -3.9860   -48.3350    26.2370 nu         1 VEH      -0.886800
     17 C27         -2.0740   -49.7380    26.6440 ca         1 VEH      -0.187000
     18 C30         -3.1800   -51.4850    24.8150 ca         1 VEH       0.344500
     19 C32         -3.8050   -52.4490    23.7950 c          1 VEH       0.495600
     20 C35         -5.8060   -52.7700    22.2720 c3         1 VEH       0.094000
     21 N2         -11.6010   -48.2210    20.6630 n7         1 VEH      -0.855300
     22 S3         -10.3650   -47.1130    20.8100 sy         1 VEH       1.165600
     23 C6         -10.1770   -46.9360    22.6040 ca         1 VEH      -0.222500
     24 N12        -13.2920   -46.0240    24.4130 n          1 VEH      -0.400800
     25 C17        -15.0790   -43.7350    22.6610 cx         1 VEH      -0.135900
     26 C18        -16.2280   -43.6270    23.6380 cx         1 VEH      -0.135900
     27 S23         -6.4110   -48.6150    24.8650 ss         1 VEH       0.058600
     28 C26         -3.2870   -49.4840    25.9920 ca         1 VEH       0.606900
     29 C28         -1.3870   -50.9290    26.3650 ca         1 VEH      -0.045000
     30 C29         -1.9550   -51.8140    25.4350 ca         1 VEH      -0.141000
     31 N31         -3.8320   -50.3180    25.1040 nb         1 VEH      -0.749000
     32 O33         -3.3060   -53.5260    23.4810 o          1 VEH      -0.607100
     33 N34         -4.9950   -52.0180    23.2330 ns         1 VEH      -0.471900
     34 C36         -6.6950   -53.8210    22.9660 c3         1 VEH      -0.111400
     35 C37         -7.5700   -54.6090    21.9650 c3         1 VEH       0.146800
     36 N38         -8.5610   -55.5220    22.5900 n3         1 VEH      -0.699600
     37 C39         -9.5210   -56.0610    21.6010 c3         1 VEH       0.136600
     38 C40         -7.9540   -56.5980    23.4100 c3         1 VEH       0.136600
     39 N41         -5.4600   -46.6540    26.3410 nd         1 VEH      -0.736000
     40 C42         -6.7200   -46.2590    25.9150 cd         1 VEH       0.361300
     41 C43         -7.2180   -44.8930    26.3050 c3         1 VEH      -0.129400
     42 H1         -12.4080   -50.0820    21.2960 h1         1 VEH       0.053700
     43 H2         -10.6380   -50.0520    21.1780 h1         1 VEH       0.053700
     44 H3         -11.4570   -49.2510    22.5390 h1         1 VEH       0.053700
     45 H4          -8.0550   -47.4140    22.5660 ha         1 VEH       0.144000
     46 H5          -9.6530   -46.4930    26.4760 ha         1 VEH       0.126000
     47 H6         -12.2460   -45.0300    26.0200 h1         1 VEH       0.071200
     48 H7         -12.5950   -46.7620    26.3220 h1         1 VEH       0.071200
     49 H8         -15.2760   -46.2460    23.7730 h1         1 VEH       0.089700
     50 H9         -16.3960   -45.6610    25.8850 hc         1 VEH       0.043367
     51 H10        -15.2020   -46.9400    26.1680 hc         1 VEH       0.043367
     52 H11        -14.8450   -45.2640    26.6500 hc         1 VEH       0.043367
     53 H12        -14.2990   -43.4970    24.7280 hc         1 VEH       0.079700
     54 H13         -3.5280   -47.6820    26.8560 hn         1 VEH       0.524000
     55 H14         -1.6710   -49.0260    27.3580 ha         1 VEH       0.129000
     56 H15         -5.1420   -53.2650    21.5490 h1         1 VEH       0.076700
     57 H16         -6.4380   -52.0630    21.7180 h1         1 VEH       0.076700
     58 H17        -12.3690   -47.6450    21.0290 hn         1 VEH       0.507000
     59 H18        -15.1420   -44.5060    21.8970 hc         1 VEH       0.076700
     60 H19        -14.5970   -42.8150    22.3390 hc         1 VEH       0.076700
     61 H20        -16.5190   -42.6340    23.9730 hc         1 VEH       0.076700
     62 H21        -17.0510   -44.3300    23.5300 hc         1 VEH       0.076700
     63 H22         -0.4430   -51.1600    26.8540 ha         1 VEH       0.130000
     64 H23         -1.4530   -52.7470    25.1920 ha         1 VEH       0.153000
     65 H24         -5.3220   -51.1130    23.5570 hn         1 VEH       0.328500
     66 H25         -7.3440   -53.3180    23.6930 hc         1 VEH       0.047200
     67 H26         -6.0540   -54.5130    23.5230 hc         1 VEH       0.047200
     68 H27         -6.9110   -55.1730    21.2900 h1         1 VEH       0.045200
     69 H28         -8.1030   -53.8730    21.3450 h1         1 VEH       0.045200
     70 H30        -10.2930   -56.6640    22.0970 h1         1 VEH       0.032200
     71 H31        -10.0250   -55.2460    21.0640 h1         1 VEH       0.032200
     72 H32         -9.0100   -56.6940    20.8630 h1         1 VEH       0.032200
     73 H33         -7.3760   -56.1850    24.2460 h1         1 VEH       0.032200
     74 H34         -8.7320   -57.2440    23.8390 h1         1 VEH       0.032200
     75 H35         -7.2860   -57.2250    22.8030 h1         1 VEH       0.032200
     76 H36         -6.3860   -44.2160    26.5290 hc         1 VEH       0.055700
     77 H37         -7.8020   -44.4390    25.4960 hc         1 VEH       0.055700
     78 H38         -7.8520   -44.9490    27.1960 hc         1 VEH       0.055700
     79 O20        -13.2640   -46.4720    22.1170 o          1 VEH      -0.574000
@<TRIPOS>BOND
     1     1    21 1   
     2     1    42 1   
     3     1    43 1   
     4     1    44 1   
     5     2    22 2   
     6     3    22 2   
     7     4     5 ar  
     8     4    23 ar  
     9     4    45 1   
    10     5     6 ar  
    11     5    14 1   
    12     6     7 ar  
    13     6    46 1   
    14     7     8 1   
    15     7    13 ar  
    16     8    24 1   
    17     8    47 1   
    18     8    48 1   
    19     9    10 1   
    20     9    11 1   
    21     9    24 1   
    22     9    49 1   
    23    10    50 1   
    24    10    51 1   
    25    10    52 1   
    26    11    25 1   
    27    11    26 1   
    28    11    53 1   
    29    12    13 1   
    30    12    24 1   
    31    12    79 2   
    32    13    23 ar  
    33    14    27 1   
    34    14    40 2   
    35    15    16 1   
    36    15    27 1   
    37    15    39 2   
    38    16    28 1   
    39    16    54 1   
    40    17    28 ar  
    41    17    29 ar  
    42    17    55 1   
    43    18    19 1   
    44    18    30 ar  
    45    18    31 ar  
    46    19    32 2   
    47    19    33 1   
    48    20    33 1   
    49    20    34 1   
    50    20    56 1   
    51    20    57 1   
    52    21    22 1   
    53    21    58 1   
    54    22    23 1   
    55    25    26 1   
    56    25    59 1   
    57    25    60 1   
    58    26    61 1   
    59    26    62 1   
    60    28    31 ar  
    61    29    30 ar  
    62    29    63 1   
    63    30    64 1   
    64    33    65 1   
    65    34    35 1   
    66    34    66 1   
    67    34    67 1   
    68    35    36 1   
    69    35    68 1   
    70    35    69 1   
    71    36    37 1   
    72    36    38 1   
    73    37    70 1   
    74    37    71 1   
    75    37    72 1   
    76    38    73 1   
    77    38    74 1   
    78    38    75 1   
    79    39    40 1   
    80    40    41 1   
    81    41    76 1   
    82    41    77 1   
    83    41    78 1   
@<TRIPOS>SUBSTRUCTURE
     1 VEH         1 TEMP              0 ****  ****    0 ROOT
