@<TRIPOS>MOLECULE
VEJ
   63    64     1     0     0
SMALL
No Charge or Current Charge


@<TRIPOS>ATOM
      1 N1           8.5110     1.6650    22.9860 ns         1 VEJ      -0.500900
      2 C4           8.2690     1.3710    21.6570 c          1 VEJ       0.591100
      3 C5           9.5270     2.6050    23.4640 c3         1 VEJ       0.108000
      4 C6          10.9270     1.9590    23.4930 c3         1 VEJ      -0.103400
      5 C7          12.0170     2.8700    24.0840 c3         1 VEJ       0.162600
      6 C8          13.1240     4.9790    23.6800 c3         1 VEJ       0.144900
      7 C10          7.5250    -0.8940    19.0900 ca         1 VEJ       0.375900
      8 C13          5.9250     0.9010    19.3520 ca         1 VEJ      -0.049000
      9 C15         10.0670    -1.1550    21.7870 ca         1 VEJ      -0.107500
     10 C17         11.5520    -1.8040    23.6310 ca         1 VEJ      -0.059300
     11 C20         12.9580    -2.0610    24.2360 c3         1 VEJ      -0.000700
     12 C21         14.1120    -1.7990    23.2270 c3         1 VEJ      -0.084100
     13 C22         13.0530    -3.5390    24.7000 c3         1 VEJ      -0.084100
     14 O1           8.8320     1.9780    20.7530 o          1 VEJ      -0.575100
     15 O2          12.1330     4.0330    23.2490 os         1 VEJ      -0.450000
     16 C3           7.2660     0.2050    21.4060 c3         1 VEJ       0.093000
     17 C9           6.9040     0.0630    19.9210 ca         1 VEJ      -0.129300
     18 C12          5.6180     0.7440    17.9910 ca         1 VEJ      -0.166000
     19 C11          6.2890    -0.2370    17.2440 ca         1 VEJ       0.341900
     20 N2           7.2290    -1.0490    17.7780 nb         1 VEJ      -0.672000
     21 N            7.6080    -1.0950    22.0770 n          1 VEJ      -0.249400
     22 C2           6.5740    -2.0680    22.1880 c          1 VEJ       0.605100
     23 O            5.3980    -1.7610    22.0280 o          1 VEJ      -0.585100
     24 C1           6.9400    -3.5530    22.3940 c3         1 VEJ      -0.151400
     25 C            7.0980    -4.2730    21.0370 c3         1 VEJ      -0.085100
     26 C14          8.9370    -1.2640    22.6180 ca         1 VEJ      -0.061000
     27 C19          9.1160    -1.7320    23.9320 ca         1 VEJ      -0.107500
     28 C18         10.4030    -1.9780    24.4360 ca         1 VEJ      -0.104500
     29 C23         13.1710    -1.1220    25.4540 c3         1 VEJ      -0.084100
     30 C16         11.3560    -1.4030    22.2880 ca         1 VEJ      -0.104500
     31 H1           8.0270     1.0940    23.6700 hn         1 VEJ       0.312500
     32 H2           9.5360     3.4920    22.8150 h1         1 VEJ       0.059700
     33 H3           9.2520     2.9300    24.4760 h1         1 VEJ       0.059700
     34 H4          10.8810     1.0430    24.0940 hc         1 VEJ       0.060200
     35 H5          11.2170     1.6600    22.4790 hc         1 VEJ       0.060200
     36 H6          12.9680     2.3220    24.1160 h1         1 VEJ       0.018200
     37 H7          11.7450     3.1520    25.1100 h1         1 VEJ       0.018200
     38 H8          13.1550     5.8370    22.9970 h1         1 VEJ       0.028033
     39 H9          12.8950     5.3520    24.6870 h1         1 VEJ       0.028033
     40 H10         14.1210     4.5190    23.6980 h1         1 VEJ       0.028033
     41 H11          8.2790    -1.5730    19.4820 h4         1 VEJ       0.018100
     42 H12          5.4160     1.6550    19.9480 ha         1 VEJ       0.115000
     43 H13          9.9620    -0.8530    20.7490 ha         1 VEJ       0.125000
     44 H14         15.0880    -1.9790    23.6940 hc         1 VEJ       0.036922
     45 H15         14.0370    -2.4630    22.3570 hc         1 VEJ       0.036922
     46 H16         14.1010    -0.7590    22.8760 hc         1 VEJ       0.036922
     47 H17         12.3210    -3.7650    25.4830 hc         1 VEJ       0.036922
     48 H18         12.8700    -4.2200    23.8600 hc         1 VEJ       0.036922
     49 H19         14.0490    -3.7610    25.1040 hc         1 VEJ       0.036922
     50 H20          6.3570     0.5600    21.9080 h1         1 VEJ       0.067700
     51 H21          4.8690     1.3710    17.5160 ha         1 VEJ       0.122000
     52 H22          6.0680    -0.3780    16.1870 h4         1 VEJ       0.016100
     53 H23          6.1390    -4.0460    22.9570 hc         1 VEJ       0.066200
     54 H24          7.8920    -3.6760    22.9140 hc         1 VEJ       0.066200
     55 H25          7.3250    -5.3350    21.1910 hc         1 VEJ       0.043033
     56 H26          6.1760    -4.2020    20.4480 hc         1 VEJ       0.043033
     57 H27          7.9160    -3.8300    20.4560 hc         1 VEJ       0.043033
     58 H28          8.2560    -1.8760    24.5820 ha         1 VEJ       0.125000
     59 H29         10.4990    -2.3070    25.4670 ha         1 VEJ       0.119000
     60 H30         12.4420    -1.3160    26.2490 hc         1 VEJ       0.036922
     61 H31         14.1710    -1.2590    25.8850 hc         1 VEJ       0.036922
     62 H32         13.0730    -0.0720    25.1550 hc         1 VEJ       0.036922
     63 H33         12.1910    -1.2730    21.6060 ha         1 VEJ       0.119000
@<TRIPOS>BOND
     1     1     2 1   
     2     1     3 1   
     3     1    31 1   
     4     2    14 2   
     5     2    16 1   
     6     3     4 1   
     7     3    32 1   
     8     3    33 1   
     9     4     5 1   
    10     4    34 1   
    11     4    35 1   
    12     5    15 1   
    13     5    36 1   
    14     5    37 1   
    15     6    15 1   
    16     6    38 1   
    17     6    39 1   
    18     6    40 1   
    19     7    17 ar  
    20     7    20 ar  
    21     7    41 1   
    22     8    17 ar  
    23     8    18 ar  
    24     8    42 1   
    25     9    26 ar  
    26     9    30 ar  
    27     9    43 1   
    28    10    11 1   
    29    10    28 ar  
    30    10    30 ar  
    31    11    12 1   
    32    11    13 1   
    33    11    29 1   
    34    12    44 1   
    35    12    45 1   
    36    12    46 1   
    37    13    47 1   
    38    13    48 1   
    39    13    49 1   
    40    16    17 1   
    41    16    21 1   
    42    16    50 1   
    43    18    19 ar  
    44    18    51 1   
    45    19    20 ar  
    46    19    52 1   
    47    21    22 1   
    48    21    26 1   
    49    22    23 2   
    50    22    24 1   
    51    24    25 1   
    52    24    53 1   
    53    24    54 1   
    54    25    55 1   
    55    25    56 1   
    56    25    57 1   
    57    26    27 ar  
    58    27    28 ar  
    59    27    58 1   
    60    28    59 1   
    61    29    60 1   
    62    29    61 1   
    63    29    62 1   
    64    30    63 1   
@<TRIPOS>SUBSTRUCTURE
     1 VEJ         1 TEMP              0 ****  ****    0 ROOT
