@<TRIPOS>MOLECULE
VEJ
   63    64     1     0     0
SMALL
abcg2


@<TRIPOS>ATOM
      1 N1           8.4630     1.6900    22.8800 ns         1 VEJ      -0.500900
      2 C4           8.3980     1.1410    21.6630 c          1 VEJ       0.591100
      3 C5           9.5070     2.6150    23.2720 c3         1 VEJ       0.108000
      4 C6          10.8280     1.9230    23.5940 c3         1 VEJ      -0.103400
      5 C7          11.8700     2.8800    24.1310 c3         1 VEJ       0.162600
      6 C8          13.1320     4.7750    23.5950 c3         1 VEJ       0.144900
      7 C10          7.4580    -0.5130    19.0420 ca         1 VEJ       0.375900
      8 C13          5.6580     0.8780    19.7130 ca         1 VEJ      -0.049000
      9 C15         10.1210    -1.5150    21.6720 ca         1 VEJ      -0.107500
     10 C17         11.5350    -1.8430    23.6160 ca         1 VEJ      -0.059300
     11 C20         12.8900    -2.0790    24.2730 c3         1 VEJ      -0.000700
     12 C21         14.0240    -2.1590    23.2500 c3         1 VEJ      -0.084100
     13 C22         12.8510    -3.4000    25.0530 c3         1 VEJ      -0.084100
     14 O1           9.1450     1.4320    20.7440 o          1 VEJ      -0.575100
     15 O2          12.1810     3.8410    23.1520 os         1 VEJ      -0.450000
     16 C3           7.2630     0.1190    21.4880 c3         1 VEJ       0.093000
     17 C9           6.7820     0.1460    20.0610 ca         1 VEJ      -0.129300
     18 C12          5.2620     0.9250    18.3850 ca         1 VEJ      -0.166000
     19 C11          6.0110     0.2290    17.4500 ca         1 VEJ       0.341900
     20 N2           7.0880    -0.4800    17.7690 nb         1 VEJ      -0.672000
     21 N            7.7040    -1.2160    21.9060 n          1 VEJ      -0.249400
     22 C2           6.7440    -2.1900    21.9270 c          1 VEJ       0.605100
     23 O            5.5860    -1.9240    21.6520 o          1 VEJ      -0.585100
     24 C1           7.1880    -3.6110    22.1860 c3         1 VEJ      -0.151400
     25 C            7.7580    -4.2280    20.9080 c3         1 VEJ      -0.085100
     26 C14          8.9960    -1.4190    22.4730 ca         1 VEJ      -0.061000
     27 C19          9.1420    -1.5200    23.8530 ca         1 VEJ      -0.107500
     28 C18         10.3890    -1.7400    24.4090 ca         1 VEJ      -0.104500
     29 C23         13.1910    -0.9240    25.2360 c3         1 VEJ      -0.084100
     30 C16         11.3720    -1.7190    22.2400 ca         1 VEJ      -0.104500
     31 H1           7.8350     1.3650    23.5960 hn         1 VEJ       0.312500
     32 H2           9.6410     3.3510    22.4800 h1         1 VEJ       0.059700
     33 H3           9.1430     3.1510    24.1500 h1         1 VEJ       0.059700
     34 H4          10.6610     1.1480    24.3460 hc         1 VEJ       0.060200
     35 H5          11.2110     1.4130    22.7080 hc         1 VEJ       0.060200
     36 H6          12.7720     2.3200    24.4200 h1         1 VEJ       0.018200
     37 H7          11.4990     3.3660    25.0460 h1         1 VEJ       0.018200
     38 H8          13.3190     5.4790    22.7840 h1         1 VEJ       0.028033
     39 H9          12.7810     5.3390    24.4680 h1         1 VEJ       0.028033
     40 H10         14.0820     4.2980    23.8640 h1         1 VEJ       0.028033
     41 H11          8.3370    -1.1090    19.2640 h4         1 VEJ       0.018100
     42 H12          5.0920     1.4060    20.4710 ha         1 VEJ       0.115000
     43 H13         10.0310    -1.4380    20.5960 ha         1 VEJ       0.125000
     44 H14         14.9690    -2.3370    23.7640 hc         1 VEJ       0.036922
     45 H15         13.8770    -2.9750    22.5400 hc         1 VEJ       0.036922
     46 H16         14.1300    -1.2310    22.6850 hc         1 VEJ       0.036922
     47 H17         12.0860    -3.3970    25.8300 hc         1 VEJ       0.036922
     48 H18         12.6520    -4.2430    24.3890 hc         1 VEJ       0.036922
     49 H19         13.8120    -3.5790    25.5400 hc         1 VEJ       0.036922
     50 H20          6.4280     0.4260    22.1290 h1         1 VEJ       0.067700
     51 H21          4.3860     1.4810    18.0810 ha         1 VEJ       0.122000
     52 H22          5.7300     0.2410    16.4030 h4         1 VEJ       0.016100
     53 H23          6.3090    -4.1710    22.5060 hc         1 VEJ       0.066200
     54 H24          7.9220    -3.6810    22.9880 hc         1 VEJ       0.066200
     55 H25          8.0100    -5.2750    21.0760 hc         1 VEJ       0.043033
     56 H26          7.0370    -4.1850    20.0920 hc         1 VEJ       0.043033
     57 H27          8.6640    -3.7170    20.5850 hc         1 VEJ       0.043033
     58 H28          8.2720    -1.4420    24.4940 ha         1 VEJ       0.125000
     59 H29         10.4640    -1.8210    25.4860 ha         1 VEJ       0.119000
     60 H30         12.4400    -0.8360    26.0240 hc         1 VEJ       0.036922
     61 H31         14.1590    -1.0730    25.7180 hc         1 VEJ       0.036922
     62 H32         13.2290     0.0280    24.7040 hc         1 VEJ       0.036922
     63 H33         12.2220    -1.7860    21.5750 ha         1 VEJ       0.119000
@<TRIPOS>BOND
     1     1     2 1   
     2     1     3 1   
     3     1    31 1   
     4     2    14 2   
     5     2    16 1   
     6     3     4 1   
     7     3    32 1   
     8     3    33 1   
     9     4     5 1   
    10     4    34 1   
    11     4    35 1   
    12     5    15 1   
    13     5    36 1   
    14     5    37 1   
    15     6    15 1   
    16     6    38 1   
    17     6    39 1   
    18     6    40 1   
    19     7    17 ar  
    20     7    20 ar  
    21     7    41 1   
    22     8    17 ar  
    23     8    18 ar  
    24     8    42 1   
    25     9    26 ar  
    26     9    30 ar  
    27     9    43 1   
    28    10    11 1   
    29    10    28 ar  
    30    10    30 ar  
    31    11    12 1   
    32    11    13 1   
    33    11    29 1   
    34    12    44 1   
    35    12    45 1   
    36    12    46 1   
    37    13    47 1   
    38    13    48 1   
    39    13    49 1   
    40    16    17 1   
    41    16    21 1   
    42    16    50 1   
    43    18    19 ar  
    44    18    51 1   
    45    19    20 ar  
    46    19    52 1   
    47    21    22 1   
    48    21    26 1   
    49    22    23 2   
    50    22    24 1   
    51    24    25 1   
    52    24    53 1   
    53    24    54 1   
    54    25    55 1   
    55    25    56 1   
    56    25    57 1   
    57    26    27 ar  
    58    27    28 ar  
    59    27    58 1   
    60    28    59 1   
    61    29    60 1   
    62    29    61 1   
    63    29    62 1   
    64    30    63 1   
@<TRIPOS>SUBSTRUCTURE
     1 VEJ         1 TEMP              0 ****  ****    0 ROOT
