@<TRIPOS>MOLECULE
VEK
   50    54     1     0     0
SMALL
No Charge or Current Charge


@<TRIPOS>ATOM
      1 C01        -19.7210    -7.5190   -16.3250 c3         1 VEK      -0.138400
      2 C02        -20.8380    -7.9890   -15.4410 cc         1 VEK       0.200300
      3 C03        -20.9270    -9.0360   -14.5830 cd         1 VEK      -0.252000
      4 C04        -22.2200    -8.9840   -14.0300 cd         1 VEK       0.287300
      5 C05        -22.8040    -9.9480   -13.0100 c3         1 VEK       0.136500
      6 N06        -23.4970   -11.1370   -13.5850 n3         1 VEK      -0.711600
      7 C07        -24.2150   -11.9670   -12.5810 c6         1 VEK       0.160800
      8 C08        -25.1720   -12.9890   -13.2770 c6         1 VEK       0.233300
      9 N09        -24.5550   -13.7330   -14.4230 nh         1 VEK      -0.838400
     10 C10        -25.3730   -14.3090   -15.4140 ca         1 VEK       0.398000
     11 C11        -25.8640   -13.5940   -16.5210 ca         1 VEK      -0.116900
     12 Br         -25.4720   -11.7300   -16.7960 br         1 VEK      -0.096100
     13 C13        -26.6750   -14.2770   -17.4480 ca         1 VEK       0.375900
     14 N14        -27.0090   -15.5870   -17.3310 nb         1 VEK      -0.622000
     15 C15        -26.5310   -16.2480   -16.2690 ca         1 VEK       0.507000
     16 N16        -26.7410   -17.5750   -15.9520 nc         1 VEK      -0.636700
     17 C17        -26.0520   -17.7280   -14.8100 cd         1 VEK       0.526400
     18 C18        -25.9850   -18.9760   -14.1010 cd         1 VEK      -0.260900
     19 C19        -26.6140   -20.1100   -14.5290 cc         1 VEK       0.318900
     20 N20        -26.3750   -21.1410   -13.6600 nc         1 VEK      -0.672000
     21 C21        -25.6000   -20.6500   -12.6950 cd         1 VEK       0.416400
     22 N22        -25.3260   -19.3050   -12.9210 na         1 VEK      -0.175500
     23 C23        -24.5010   -18.4450   -12.0560 c3         1 VEK       0.054900
     24 N24        -25.4070   -16.5760   -14.3670 na         1 VEK      -0.320600
     25 C25        -25.7380   -15.6540   -15.3260 ca         1 VEK      -0.180200
     26 C26        -23.1060   -13.4660   -14.6950 c6         1 VEK       0.233300
     27 C27        -22.6180   -11.9880   -14.4540 c6         1 VEK       0.160800
     28 N28        -22.9210    -7.9610   -14.4960 nc         1 VEK      -0.352300
     29 O29        -22.0270    -7.3030   -15.4220 os         1 VEK      -0.093700
     30 H01        -19.4180    -6.5010   -16.0570 hc         1 VEK       0.064033
     31 H01A       -18.8460    -8.1720   -16.2300 hc         1 VEK       0.064033
     32 H01B       -20.0330    -7.5180   -17.3760 hc         1 VEK       0.064033
     33 H03        -20.1570    -9.7670   -14.3700 ha         1 VEK       0.148000
     34 H05        -21.9910   -10.2740   -12.3480 h1         1 VEK       0.051700
     35 H05A       -23.5070    -9.3810   -12.3840 h1         1 VEK       0.051700
     36 H07        -23.4960   -12.5140   -11.9530 h1         1 VEK       0.042700
     37 H07A       -24.8140   -11.3350   -11.9090 h1         1 VEK       0.042700
     38 H08        -25.5420   -13.6990   -12.5230 h1         1 VEK       0.040950
     39 H08A       -26.0450   -12.4300   -13.6440 h1         1 VEK       0.040950
     40 H13        -27.0750   -13.7570   -18.3170 h4         1 VEK       0.037100
     41 H19        -27.2280   -20.2590   -15.4090 h4         1 VEK       0.064100
     42 H21        -25.2120   -21.1840   -11.8360 h5         1 VEK       0.057100
     43 H23        -24.1310   -19.0230   -11.2000 h1         1 VEK       0.055367
     44 H23A       -23.6420   -18.0640   -12.6230 h1         1 VEK       0.055367
     45 H23B       -25.1030   -17.6070   -11.6830 h1         1 VEK       0.055367
     46 HN24       -24.8330   -16.4570   -13.5450 hn         1 VEK       0.352000
     47 H26        -22.5100   -14.1270   -14.0480 h1         1 VEK       0.040950
     48 H26A       -22.8540   -13.7510   -15.7270 h1         1 VEK       0.040950
     49 H27        -22.5100   -11.5010   -15.4340 h1         1 VEK       0.042700
     50 H27A       -21.6050   -12.0460   -14.0290 h1         1 VEK       0.042700
@<TRIPOS>BOND
     1     1     2 1   
     2     1    30 1   
     3     1    31 1   
     4     1    32 1   
     5     2     3 2   
     6     2    29 1   
     7     3     4 1   
     8     3    33 1   
     9     4     5 1   
    10     4    28 2   
    11     5     6 1   
    12     5    34 1   
    13     5    35 1   
    14     6     7 1   
    15     6    27 1   
    16     7     8 1   
    17     7    36 1   
    18     7    37 1   
    19     8     9 1   
    20     8    38 1   
    21     8    39 1   
    22     9    10 1   
    23     9    26 1   
    24    10    11 ar  
    25    10    25 ar  
    26    11    12 1   
    27    11    13 ar  
    28    13    14 ar  
    29    13    40 1   
    30    14    15 ar  
    31    15    16 1   
    32    15    25 ar  
    33    16    17 2   
    34    17    18 1   
    35    17    24 1   
    36    18    19 2   
    37    18    22 1   
    38    19    20 1   
    39    19    41 1   
    40    20    21 2   
    41    21    22 1   
    42    21    42 1   
    43    22    23 1   
    44    23    43 1   
    45    23    44 1   
    46    23    45 1   
    47    24    25 1   
    48    24    46 1   
    49    26    27 1   
    50    26    47 1   
    51    26    48 1   
    52    27    49 1   
    53    27    50 1   
    54    28    29 1   
@<TRIPOS>SUBSTRUCTURE
     1 VEK         1 TEMP              0 ****  ****    0 ROOT
