@<TRIPOS>MOLECULE
VEK
   50    54     1     0     0
SMALL
abcg2


@<TRIPOS>ATOM
      1 C01        -21.5500    -6.6020   -16.0070 c3         1 VEK      -0.138400
      2 C02        -21.8740    -7.6320   -14.9880 cc         1 VEK       0.200300
      3 C03        -21.4440    -8.9030   -14.7680 cd         1 VEK      -0.252000
      4 C04        -22.1710    -9.3360   -13.6260 cd         1 VEK       0.287300
      5 C05        -22.1330   -10.6480   -12.9000 c3         1 VEK       0.136500
      6 N06        -22.7420   -11.7370   -13.6510 n3         1 VEK      -0.711600
      7 C07        -23.0910   -12.8720   -12.8100 c6         1 VEK       0.160800
      8 C08        -24.0870   -13.7730   -13.5450 c6         1 VEK       0.233300
      9 N09        -23.7290   -13.8510   -14.9610 nh         1 VEK      -0.838400
     10 C10        -24.5380   -14.5110   -15.8610 ca         1 VEK       0.398000
     11 C11        -24.7290   -14.1000   -17.2000 ca         1 VEK      -0.116900
     12 BR         -23.9410   -12.4820   -17.8530 br         1 VEK      -0.096100
     13 C13        -25.5610   -14.7840   -18.0880 ca         1 VEK       0.375900
     14 N14        -26.2710   -15.8640   -17.7710 nb         1 VEK      -0.622000
     15 C15        -26.1360   -16.2740   -16.5070 ca         1 VEK       0.507000
     16 N16        -26.7360   -17.3800   -15.9610 nc         1 VEK      -0.636700
     17 C17        -26.2940   -17.4530   -14.7130 cd         1 VEK       0.526400
     18 C18        -26.6880   -18.5000   -13.8070 cd         1 VEK      -0.260900
     19 C19        -27.5060   -19.5780   -14.0810 cc         1 VEK       0.318900
     20 N20        -27.6670   -20.3530   -12.9680 nc         1 VEK      -0.672000
     21 C21        -26.9600   -19.7580   -12.0250 cd         1 VEK       0.416400
     22 N22        -26.3440   -18.6380   -12.4690 na         1 VEK      -0.175500
     23 C23        -25.5190   -17.7740   -11.6350 c3         1 VEK       0.054900
     24 N24        -25.4350   -16.4250   -14.4180 na         1 VEK      -0.320600
     25 C25        -25.3080   -15.6440   -15.5490 ca         1 VEK      -0.180200
     26 C26        -22.3170   -13.5910   -15.2280 c6         1 VEK       0.233300
     27 C27        -21.9400   -12.1680   -14.8020 c6         1 VEK       0.160800
     28 N28        -22.9740    -8.3960   -13.1890 nc         1 VEK      -0.352300
     29 O29        -22.7880    -7.3060   -14.0510 os         1 VEK      -0.093700
     30 H01        -22.0270    -5.6570   -15.7550 hc         1 VEK       0.064033
     31 H01A       -20.4740    -6.4490   -16.0630 hc         1 VEK       0.064033
     32 H01B       -21.8940    -6.9170   -16.9940 hc         1 VEK       0.064033
     33 H03        -20.7050    -9.4440   -15.3310 ha         1 VEK       0.148000
     34 H05        -21.0880   -10.8690   -12.6240 h1         1 VEK       0.051700
     35 H05A       -22.6990   -10.5240   -11.9760 h1         1 VEK       0.051700
     36 H07        -22.2050   -13.4520   -12.5100 h1         1 VEK       0.042700
     37 H07A       -23.5630   -12.5230   -11.8920 h1         1 VEK       0.042700
     38 H08        -24.0710   -14.7430   -13.0360 h1         1 VEK       0.040950
     39 H08A       -25.0950   -13.3630   -13.4690 h1         1 VEK       0.040950
     40 H13        -25.6620   -14.4110   -19.1010 h4         1 VEK       0.037100
     41 H19        -27.9650   -19.8170   -15.0250 h4         1 VEK       0.064100
     42 H21        -26.8540   -20.0920   -11.0040 h5         1 VEK       0.057100
     43 H23        -25.4740   -18.2130   -10.6420 h1         1 VEK       0.055367
     44 H23A       -24.5050   -17.7100   -12.0310 h1         1 VEK       0.055367
     45 H23B       -25.9600   -16.7800   -11.5640 h1         1 VEK       0.055367
     46 HN24       -24.9290   -16.3100   -13.5590 hn         1 VEK       0.352000
     47 H26        -21.7170   -14.3250   -14.6780 h1         1 VEK       0.040950
     48 H26A       -22.1020   -13.7330   -16.2820 h1         1 VEK       0.040950
     49 H27        -22.1070   -11.4820   -15.6320 h1         1 VEK       0.042700
     50 H27A       -20.8650   -12.1480   -14.5640 h1         1 VEK       0.042700
@<TRIPOS>BOND
     1     1     2 1   
     2     1    30 1   
     3     1    31 1   
     4     1    32 1   
     5     2     3 2   
     6     2    29 1   
     7     3     4 1   
     8     3    33 1   
     9     4     5 1   
    10     4    28 2   
    11     5     6 1   
    12     5    34 1   
    13     5    35 1   
    14     6     7 1   
    15     6    27 1   
    16     7     8 1   
    17     7    36 1   
    18     7    37 1   
    19     8     9 1   
    20     8    38 1   
    21     8    39 1   
    22     9    10 1   
    23     9    26 1   
    24    10    11 ar  
    25    10    25 ar  
    26    11    12 1   
    27    11    13 ar  
    28    13    14 ar  
    29    13    40 1   
    30    14    15 ar  
    31    15    16 1   
    32    15    25 ar  
    33    16    17 2   
    34    17    18 1   
    35    17    24 1   
    36    18    19 2   
    37    18    22 1   
    38    19    20 1   
    39    19    41 1   
    40    20    21 2   
    41    21    22 1   
    42    21    42 1   
    43    22    23 1   
    44    23    43 1   
    45    23    44 1   
    46    23    45 1   
    47    24    25 1   
    48    24    46 1   
    49    26    27 1   
    50    26    47 1   
    51    26    48 1   
    52    27    49 1   
    53    27    50 1   
    54    28    29 1   
@<TRIPOS>SUBSTRUCTURE
     1 VEK         1 TEMP              0 ****  ****    0 ROOT
