@<TRIPOS>MOLECULE
VEL
   20    20     1     0     0
SMALL
abcg2


@<TRIPOS>ATOM
      1 C7           1.1200    13.4300   -35.9310 c3         1 VEL       0.392300
      2 O1          -0.0700    12.7970   -35.7340 os         1 VEL      -0.392100
      3 C1          -1.2260    14.9100   -35.2790 ca         1 VEL      -0.149500
      4 C5          -3.4470    14.7910   -34.3030 ca         1 VEL      -0.107300
      5 C6          -4.6920    15.4770   -33.8230 c3         1 VEL       0.209900
      6 C4          -3.3550    13.3990   -34.3130 ca         1 VEL      -0.058000
      7 C3          -2.2180    12.7600   -34.7850 ca         1 VEL      -0.149500
      8 C2          -1.1590    13.5210   -35.2650 ca         1 VEL       0.139100
      9 F1           2.0680    12.4660   -35.9710 f          1 VEL      -0.114500
     10 F            1.1390    14.0390   -37.1600 f          1 VEL      -0.114500
     11 C           -2.3700    15.5300   -34.7880 ca         1 VEL      -0.058000
     12 O           -5.5330    15.7440   -34.9610 oh         1 VEL      -0.661000
     13 H1           1.3710    14.1690   -35.1710 h3         1 VEL       0.063700
     14 H2          -0.4190    15.5110   -35.6700 ha         1 VEL       0.130500
     15 H3          -4.4360    16.4170   -33.3240 h1         1 VEL       0.029200
     16 H4          -5.2200    14.8380   -33.1090 h1         1 VEL       0.029200
     17 H5          -4.1810    12.8050   -33.9390 ha         1 VEL       0.120000
     18 H6          -2.1380    11.6810   -34.7830 ha         1 VEL       0.130500
     19 H7          -2.4220    16.6120   -34.7900 ha         1 VEL       0.120000
     20 H8          -6.3200    16.2050   -34.6440 ho         1 VEL       0.440000
@<TRIPOS>BOND
     1     1     2 1   
     2     1     9 1   
     3     1    10 1   
     4     1    13 1   
     5     2     8 1   
     6     3     8 ar  
     7     3    11 ar  
     8     3    14 1   
     9     4     5 1   
    10     4     6 ar  
    11     4    11 ar  
    12     5    12 1   
    13     5    15 1   
    14     5    16 1   
    15     6     7 ar  
    16     6    17 1   
    17     7     8 ar  
    18     7    18 1   
    19    11    19 1   
    20    12    20 1   
@<TRIPOS>SUBSTRUCTURE
     1 VEL         1 TEMP              0 ****  ****    0 ROOT
