@<TRIPOS>MOLECULE
VEL
   20    20     1     0     0
SMALL
No Charge or Current Charge


@<TRIPOS>ATOM
      1 C7           1.1920    13.4270   -36.0360 c3         1 VEL       0.392300
      2 O1           0.0180    12.7770   -35.5160 os         1 VEL      -0.392100
      3 C1          -1.1660    14.8880   -35.1240 ca         1 VEL      -0.149500
      4 C5          -3.4730    14.7970   -34.3230 ca         1 VEL      -0.107300
      5 C6          -4.7460    15.5070   -33.8820 c3         1 VEL       0.209900
      6 C4          -3.4110    13.3910   -34.3330 ca         1 VEL      -0.058000
      7 C3          -2.2330    12.7380   -34.7360 ca         1 VEL      -0.149500
      8 C2          -1.1090    13.4770   -35.1360 ca         1 VEL       0.139100
      9 F1           2.1850    12.5250   -36.2080 f          1 VEL      -0.114500
     10 F            0.9460    13.9600   -37.2560 f          1 VEL      -0.114500
     11 C           -2.3450    15.5420   -34.7200 ca         1 VEL      -0.058000
     12 O           -5.6010    15.7340   -35.0070 oh         1 VEL      -0.661000
     13 H1           1.5420    14.2120   -35.3590 h3         1 VEL       0.063700
     14 H2          -0.3140    15.4930   -35.4200 ha         1 VEL       0.130500
     15 H3          -4.4830    16.4610   -33.4050 h1         1 VEL       0.029200
     16 H4          -5.2610    14.8950   -33.1290 h1         1 VEL       0.029200
     17 H5          -4.2760    12.8040   -34.0300 ha         1 VEL       0.120000
     18 H6          -2.1920    11.6520   -34.7410 ha         1 VEL       0.130500
     19 H7          -2.3820    16.6290   -34.7160 ha         1 VEL       0.120000
     20 H8          -6.4010    16.1910   -34.6660 ho         1 VEL       0.440000
@<TRIPOS>BOND
     1     1     2 1   
     2     1     9 1   
     3     1    10 1   
     4     1    13 1   
     5     2     8 1   
     6     3     8 ar  
     7     3    11 ar  
     8     3    14 1   
     9     4     5 1   
    10     4     6 ar  
    11     4    11 ar  
    12     5    12 1   
    13     5    15 1   
    14     5    16 1   
    15     6     7 ar  
    16     6    17 1   
    17     7     8 ar  
    18     7    18 1   
    19    11    19 1   
    20    12    20 1   
@<TRIPOS>SUBSTRUCTURE
     1 VEL         1 TEMP              0 ****  ****    0 ROOT
