@<TRIPOS>MOLECULE
VEM
   60    61     1     0     0
SMALL
bcc


@<TRIPOS>ATOM
      1 N1           7.5870     1.5420    22.9180 ns         1 VEM      -0.571900
      2 C4           7.8210     1.0480    21.6980 c          1 VEM       0.659100
      3 C5           8.4430     2.5200    23.5500 c3         1 VEM       0.101000
      4 C6           8.0790     3.9390    23.1360 c3         1 VEM       0.112400
      5 C7           8.7030     6.1640    23.4850 c3         1 VEM       0.125700
      6 C8           6.4780     0.1700    19.8180 ca         1 VEM      -0.198600
      7 C10          5.9240     0.6650    17.1980 ca         1 VEM       0.408200
      8 C13          8.7240    -1.4680    22.1570 ca         1 VEM       0.022600
      9 C15         11.1220    -1.6560    22.1040 ca         1 VEM      -0.122500
     10 C17          9.9920    -1.5230    24.1980 ca         1 VEM      -0.122500
     11 C20         13.7160    -1.8530    23.3310 c3         1 VEM      -0.083767
     12 C21         12.4870    -2.8910    25.2200 c3         1 VEM      -0.083767
     13 C22         12.6830    -0.4000    25.0640 c3         1 VEM      -0.083767
     14 O1           8.7230     1.4230    20.9710 o          1 VEM      -0.574100
     15 O2           8.9230     4.8200    23.8280 os         1 VEM      -0.408600
     16 C3           6.8490    -0.0590    21.2600 c3         1 VEM       0.100000
     17 C12          5.3050     0.8320    19.4910 ca         1 VEM      -0.072000
     18 C11          5.0190     1.0870    18.1590 ca         1 VEM      -0.250300
     19 N2           7.0500     0.0250    17.4960 nb         1 VEM      -0.671000
     20 C9           7.3150    -0.2090    18.7740 ca         1 VEM       0.445200
     21 N            7.4690    -1.3670    21.4870 n          1 VEM      -0.410000
     22 C2           6.6850    -2.4650    21.2690 c          1 VEM       0.671100
     23 O            5.5390    -2.3420    20.8740 o          1 VEM      -0.584100
     24 C1           7.3210    -3.8170    21.5120 c3         1 VEM      -0.150400
     25 C            6.3850    -4.9740    21.2130 c3         1 VEM      -0.078100
     26 C18          8.7750    -1.4470    23.5460 ca         1 VEM      -0.118000
     27 C16         11.1940    -1.6290    23.4940 ca         1 VEM      -0.052300
     28 C19         12.5110    -1.6950    24.2590 c3         1 VEM      -0.001700
     29 C14          9.9040    -1.5690    21.4410 ca         1 VEM      -0.118000
     30 H1           6.8090     1.1850    23.4480 hn         1 VEM       0.316500
     31 H2           9.4830     2.3080    23.2980 h1         1 VEM       0.065200
     32 H3           8.3340     2.4070    24.6280 h1         1 VEM       0.065200
     33 H4           7.0230     4.1320    23.3700 h1         1 VEM       0.031200
     34 H5           8.1960     4.0510    22.0490 h1         1 VEM       0.031200
     35 H6           9.3960     6.7770    24.0600 h1         1 VEM       0.030033
     36 H7           8.8800     6.3490    22.4190 h1         1 VEM       0.030033
     37 H8           7.6810     6.4870    23.7170 h1         1 VEM       0.030033
     38 H9           5.7310     0.8460    16.1460 h4         1 VEM       0.017100
     39 H10         12.0190    -1.7390    21.5070 ha         1 VEM       0.136500
     40 H11          9.9960    -1.4960    25.2810 ha         1 VEM       0.136500
     41 H12         14.6300    -1.8970    23.9250 hc         1 VEM       0.036922
     42 H13         13.6640    -2.7720    22.7450 hc         1 VEM       0.036922
     43 H14         13.8180    -1.0150    22.6390 hc         1 VEM       0.036922
     44 H15         11.6740    -2.8190    25.9420 hc         1 VEM       0.036922
     45 H16         12.3750    -3.8320    24.6780 hc         1 VEM       0.036922
     46 H17         13.4220    -2.9390    25.7820 hc         1 VEM       0.036922
     47 H18         11.8830    -0.2650    25.7940 hc         1 VEM       0.036922
     48 H19         13.6280    -0.4170    25.6130 hc         1 VEM       0.036922
     49 H20         12.6910     0.4750    24.4120 hc         1 VEM       0.036922
     50 H21          5.9370     0.0050    21.8620 h1         1 VEM       0.062700
     51 H22          4.6160     1.1400    20.2680 ha         1 VEM       0.131000
     52 H23          4.1110     1.5970    17.8680 ha         1 VEM       0.140000
     53 H24          8.2380    -0.7400    18.9800 h4         1 VEM       0.023100
     54 H25          7.6710    -3.8730    22.5460 hc         1 VEM       0.063700
     55 H26          8.2240    -3.8890    20.9010 hc         1 VEM       0.063700
     56 H27          6.9040    -5.9180    21.3780 hc         1 VEM       0.042367
     57 H28          5.5080    -4.9630    21.8600 hc         1 VEM       0.042367
     58 H29          6.0400    -4.9610    20.1800 hc         1 VEM       0.042367
     59 H30          7.8610    -1.3750    24.1220 ha         1 VEM       0.139500
     60 H31          9.8800    -1.5860    20.3590 ha         1 VEM       0.139500
@<TRIPOS>BOND
     1     1     2 1   
     2     1     3 1   
     3     1    30 1   
     4     2    14 2   
     5     2    16 1   
     6     3     4 1   
     7     3    31 1   
     8     3    32 1   
     9     4    15 1   
    10     4    33 1   
    11     4    34 1   
    12     5    15 1   
    13     5    35 1   
    14     5    36 1   
    15     5    37 1   
    16     6    16 1   
    17     6    17 ar  
    18     6    20 ar  
    19     7    18 ar  
    20     7    19 ar  
    21     7    38 1   
    22     8    21 1   
    23     8    26 ar  
    24     8    29 ar  
    25     9    27 ar  
    26     9    29 ar  
    27     9    39 1   
    28    10    26 ar  
    29    10    27 ar  
    30    10    40 1   
    31    11    28 1   
    32    11    41 1   
    33    11    42 1   
    34    11    43 1   
    35    12    28 1   
    36    12    44 1   
    37    12    45 1   
    38    12    46 1   
    39    13    28 1   
    40    13    47 1   
    41    13    48 1   
    42    13    49 1   
    43    16    21 1   
    44    16    50 1   
    45    17    18 ar  
    46    17    51 1   
    47    18    52 1   
    48    19    20 ar  
    49    20    53 1   
    50    21    22 1   
    51    22    23 2   
    52    22    24 1   
    53    24    25 1   
    54    24    54 1   
    55    24    55 1   
    56    25    56 1   
    57    25    57 1   
    58    25    58 1   
    59    26    59 1   
    60    27    28 1   
    61    29    60 1   
@<TRIPOS>SUBSTRUCTURE
     1 VEM         1 TEMP              0 ****  ****    0 ROOT
