@<TRIPOS>MOLECULE
VEM
   60    61     1     0     0
SMALL
No Charge or Current Charge


@<TRIPOS>ATOM
      1 N1           8.1640     1.9650    22.5290 ns         1 VEM      -0.504900
      2 C4           7.4400     1.8860    21.3570 c          1 VEM       0.592100
      3 C5           8.7850     3.1870    23.0580 c3         1 VEM       0.101000
      4 C6           7.7580     4.1790    23.6460 c3         1 VEM       0.135600
      5 C7           7.6470     6.3190    24.7670 c3         1 VEM       0.148900
      6 C8           7.1700     0.0920    19.5330 ca         1 VEM      -0.133300
      7 C10          7.8160    -0.6150    16.9420 ca         1 VEM       0.342900
      8 C13          8.4290    -0.9500    22.3280 ca         1 VEM      -0.070000
      9 C15         10.6060    -1.9200    21.7860 ca         1 VEM      -0.104500
     10 C17         10.0890    -1.3390    24.0780 ca         1 VEM      -0.104500
     11 C20         13.3450    -2.7550    22.4510 c3         1 VEM      -0.083767
     12 C21         12.2890    -3.4320    24.6290 c3         1 VEM      -0.083767
     13 C22         13.1400    -1.0680    24.3010 c3         1 VEM      -0.083767
     14 O1           7.2710     2.8760    20.6570 o          1 VEM      -0.574100
     15 O2           8.4790     5.3030    24.1800 os         1 VEM      -0.455000
     16 C3           6.8420     0.4940    20.9760 c3         1 VEM       0.100000
     17 C12          6.2850    -0.7330    18.8150 ca         1 VEM      -0.054000
     18 C11          6.6180    -1.0890    17.4990 ca         1 VEM      -0.167000
     19 N2           8.6770     0.1770    17.6200 nb         1 VEM      -0.671000
     20 C9           8.3540     0.5220    18.8890 ca         1 VEM       0.379900
     21 N            7.0740    -0.6320    21.9530 n          1 VEM      -0.250400
     22 C2           5.9570    -1.4330    22.3380 c          1 VEM       0.604100
     23 O            4.8070    -1.0940    22.0860 o          1 VEM      -0.584100
     24 C1           6.1940    -2.8010    23.0120 c3         1 VEM      -0.150400
     25 C            6.3830    -3.9090    21.9520 c3         1 VEM      -0.078100
     26 C18          8.8050    -0.9310    23.6840 ca         1 VEM      -0.100000
     27 C16         11.0230    -1.8270    23.1360 ca         1 VEM      -0.052300
     28 C19         12.4340    -2.2670    23.6130 c3         1 VEM      -0.001700
     29 C14          9.3210    -1.5080    21.3950 ca         1 VEM      -0.100000
     30 H1           8.2910     1.0970    23.0370 hn         1 VEM       0.316500
     31 H2           9.3470     3.6790    22.2540 h1         1 VEM       0.065200
     32 H3           9.4980     2.9010    23.8430 h1         1 VEM       0.065200
     33 H4           7.1800     3.6790    24.4340 h1         1 VEM       0.031200
     34 H5           7.0640     4.5020    22.8590 h1         1 VEM       0.031200
     35 H6           8.2640     7.1410    25.1520 h1         1 VEM       0.030033
     36 H7           6.9520     6.7310    24.0240 h1         1 VEM       0.030033
     37 H8           7.0630     5.9100    25.6020 h1         1 VEM       0.030033
     38 H9           8.0970    -0.8770    15.9230 h4         1 VEM       0.017100
     39 H10         11.2570    -2.3240    21.0170 ha         1 VEM       0.118500
     40 H11         10.3490    -1.2810    25.1310 ha         1 VEM       0.118500
     41 H12         14.3370    -3.0390    22.8250 hc         1 VEM       0.036922
     42 H13         12.9180    -3.6340    21.9540 hc         1 VEM       0.036922
     43 H14         13.4880    -1.9650    21.7040 hc         1 VEM       0.036922
     44 H15         11.7300    -3.1240    25.5210 hc         1 VEM       0.036922
     45 H16         11.7590    -4.2780    24.1750 hc         1 VEM       0.036922
     46 H17         13.2720    -3.7870    24.9620 hc         1 VEM       0.036922
     47 H18         12.5970    -0.7330    25.1920 hc         1 VEM       0.036922
     48 H19         14.1550    -1.3380    24.6170 hc         1 VEM       0.036922
     49 H20         13.2150    -0.2170    23.6120 hc         1 VEM       0.036922
     50 H21          5.7700     0.7190    20.9770 h1         1 VEM       0.062700
     51 H22          5.3610    -1.0920    19.2650 ha         1 VEM       0.113000
     52 H23          5.9610    -1.7250    16.9130 ha         1 VEM       0.122000
     53 H24          9.0800     1.1470    19.4060 h4         1 VEM       0.023100
     54 H25          5.3270    -3.0560    23.6310 hc         1 VEM       0.063700
     55 H26          7.0990    -2.8030    23.6240 hc         1 VEM       0.063700
     56 H27          6.5420    -4.8800    22.4370 hc         1 VEM       0.042367
     57 H28          5.4980    -3.9860    21.3100 hc         1 VEM       0.042367
     58 H29          7.2520    -3.6970    21.3180 hc         1 VEM       0.042367
     59 H30          8.1030    -0.5840    24.4400 ha         1 VEM       0.121500
     60 H31          9.0220    -1.6460    20.3610 ha         1 VEM       0.121500
@<TRIPOS>BOND
     1     1     2 1   
     2     1     3 1   
     3     1    30 1   
     4     2    14 2   
     5     2    16 1   
     6     3     4 1   
     7     3    31 1   
     8     3    32 1   
     9     4    15 1   
    10     4    33 1   
    11     4    34 1   
    12     5    15 1   
    13     5    35 1   
    14     5    36 1   
    15     5    37 1   
    16     6    16 1   
    17     6    17 ar  
    18     6    20 ar  
    19     7    18 ar  
    20     7    19 ar  
    21     7    38 1   
    22     8    21 1   
    23     8    26 ar  
    24     8    29 ar  
    25     9    27 ar  
    26     9    29 ar  
    27     9    39 1   
    28    10    26 ar  
    29    10    27 ar  
    30    10    40 1   
    31    11    28 1   
    32    11    41 1   
    33    11    42 1   
    34    11    43 1   
    35    12    28 1   
    36    12    44 1   
    37    12    45 1   
    38    12    46 1   
    39    13    28 1   
    40    13    47 1   
    41    13    48 1   
    42    13    49 1   
    43    16    21 1   
    44    16    50 1   
    45    17    18 ar  
    46    17    51 1   
    47    18    52 1   
    48    19    20 ar  
    49    20    53 1   
    50    21    22 1   
    51    22    23 2   
    52    22    24 1   
    53    24    25 1   
    54    24    54 1   
    55    24    55 1   
    56    25    56 1   
    57    25    57 1   
    58    25    58 1   
    59    26    59 1   
    60    27    28 1   
    61    29    60 1   
@<TRIPOS>SUBSTRUCTURE
     1 VEM         1 TEMP              0 ****  ****    0 ROOT
