@<TRIPOS>MOLECULE
VEN
   67    72     1     0     0
SMALL
bcc


@<TRIPOS>ATOM
      1 C1         -15.0740   -46.3230    25.2000 c3         1 VEN      -0.108100
      2 C2         -14.3250   -45.5220    24.1410 c3         1 VEN       0.151700
      3 C8         -11.9420   -45.4200    25.0140 c5         1 VEN       0.139300
      4 C9         -10.7240   -46.2000    24.6430 ca         1 VEN      -0.098300
      5 C10         -9.4720   -46.1520    25.2220 ca         1 VEN      -0.075000
      6 C11         -8.4530   -46.9620    24.7150 ca         1 VEN       0.035000
      7 C12         -8.7520   -47.8130    23.6350 ca         1 VEN      -0.063000
      8 C13        -10.0180   -47.8690    23.0850 ca         1 VEN      -0.182500
      9 C14        -11.0230   -47.0480    23.5900 ca         1 VEN      -0.082600
     10 C15        -12.4680   -46.8970    23.2720 c          1 VEN       0.717100
     11 C21         -7.1190   -46.9640    25.2970 cc         1 VEN      -0.190400
     12 C27         -1.5400   -51.0260    26.1510 ca         1 VEN      -0.036000
     13 C32         -5.7110   -51.4880    23.7200 c5         1 VEN       0.101000
     14 C33         -6.3420   -52.6280    22.9290 c5         1 VEN      -0.096400
     15 C34         -5.1620   -53.2340    22.1860 c5         1 VEN      -0.164400
     16 C35         -3.9760   -52.9440    23.0750 c          1 VEN       0.714500
     17 C4         -14.4550   -44.0370    24.3710 cx         1 VEN      -0.150700
     18 C5         -14.1850   -43.0880    23.2470 cx         1 VEN      -0.121900
     19 C6         -15.5890   -43.3020    23.7270 cx         1 VEN      -0.121900
     20 N7         -12.9250   -45.9120    24.0790 n          1 VEN      -0.471800
     21 O16        -13.1350   -47.5340    22.4750 o          1 VEN      -0.614500
     22 S17        -10.2490   -48.9740    21.6940 sy         1 VEN       1.086300
     23 O18        -10.9010   -48.2520    20.6090 o          1 VEN      -0.588800
     24 O19         -8.9530   -49.5920    21.4170 o          1 VEN      -0.588800
     25 S22         -6.1190   -48.3870    25.1600 ss         1 VEN      -0.092300
     26 C23         -4.8950   -47.5700    26.0560 cc         1 VEN       0.694300
     27 N24         -3.7080   -48.1280    26.4090 nu         1 VEN      -0.835600
     28 C25         -3.2150   -49.3630    26.0500 ca         1 VEN       0.704200
     29 C26         -1.9800   -49.7810    26.5480 ca         1 VEN      -0.321300
     30 C28         -2.2930   -51.8100    25.2880 ca         1 VEN      -0.293300
     31 C29         -3.5040   -51.2860    24.8380 ca         1 VEN       0.605200
     32 N30         -3.9490   -50.0950    25.2320 nb         1 VEN      -0.802000
     33 N31         -4.3480   -51.9600    23.9600 n          1 VEN      -0.472300
     34 N37         -5.1940   -46.3550    26.4100 nd         1 VEN      -0.738000
     35 C38         -6.4380   -45.9950    25.9850 cd         1 VEN       0.430600
     36 C39         -6.8960   -44.6050    26.2810 c3         1 VEN      -0.129400
     37 H1         -16.1260   -46.0400    25.2090 hc         1 VEN       0.043367
     38 H2         -15.0130   -47.3930    25.0010 hc         1 VEN       0.043367
     39 H3         -14.6690   -46.1370    26.1970 hc         1 VEN       0.043367
     40 H4         -14.7490   -45.7540    23.1610 h1         1 VEN       0.083700
     41 H5         -11.7790   -44.3450    24.9040 h1         1 VEN       0.065700
     42 H6         -12.2430   -45.6050    26.0500 h1         1 VEN       0.065700
     43 H7          -9.3030   -45.5140    26.0780 ha         1 VEN       0.145000
     44 H8          -7.9730   -48.4370    23.2180 ha         1 VEN       0.166000
     45 H9         -10.8410   -50.7360    23.1550 h1         1 VEN       0.107367
     46 H10        -12.2770   -49.8190    22.6030 h1         1 VEN       0.107367
     47 H11        -11.4640   -50.9600    21.5000 h1         1 VEN       0.107367
     48 H12         -0.5960   -51.4040    26.5210 ha         1 VEN       0.142000
     49 H13         -5.6960   -50.5590    23.1470 h1         1 VEN       0.064700
     50 H14         -7.1320   -52.2680    22.2730 hc         1 VEN       0.065200
     51 H15         -5.2490   -54.3010    21.9880 hc         1 VEN       0.083200
     52 H16         -4.9890   -52.7360    21.2270 hc         1 VEN       0.083200
     53 H17        -14.1800   -43.7000    25.3660 hc         1 VEN       0.075700
     54 H18        -13.9090   -43.5090    22.2870 hc         1 VEN       0.075700
     55 H19        -13.7000   -42.1480    23.4770 hc         1 VEN       0.075700
     56 H20        -16.0670   -42.5110    24.2890 hc         1 VEN       0.075700
     57 H21        -16.2630   -43.8660    23.0920 hc         1 VEN       0.075700
     58 H22         -3.1260   -47.5430    26.9930 hn         1 VEN       0.465800
     59 H23         -1.4030   -49.1570    27.2170 ha         1 VEN       0.148000
     60 H24         -1.9470   -52.7850    24.9920 ha         1 VEN       0.177000
     61 H25         -6.0340   -43.9520    26.4040 hc         1 VEN       0.052700
     62 H26         -7.5180   -44.1990    25.4850 hc         1 VEN       0.052700
     63 H27         -7.4730   -44.5600    27.2070 hc         1 VEN       0.052700
     64 H28         -6.2200   -51.2940    24.6620 h1         1 VEN       0.064700
     65 H29         -6.7780   -53.3610    23.6100 hc         1 VEN       0.065200
     66 O36         -2.8820   -53.4610    23.0000 o          1 VEN      -0.598500
     67 C20        -11.3230   -50.2470    22.3120 c3         1 VEN      -0.221300
@<TRIPOS>BOND
     1     1     2 1   
     2     1    37 1   
     3     1    38 1   
     4     1    39 1   
     5     2    17 1   
     6     2    20 1   
     7     2    40 1   
     8     3     4 1   
     9     3    20 1   
    10     3    41 1   
    11     3    42 1   
    12     4     5 ar  
    13     4     9 ar  
    14     5     6 ar  
    15     5    43 1   
    16     6     7 ar  
    17     6    11 1   
    18     7     8 ar  
    19     7    44 1   
    20     8     9 ar  
    21     8    22 1   
    22     9    10 1   
    23    10    20 1   
    24    10    21 2   
    25    11    25 1   
    26    11    35 2   
    27    12    29 ar  
    28    12    30 ar  
    29    12    48 1   
    30    13    14 1   
    31    13    33 1   
    32    13    49 1   
    33    13    64 1   
    34    14    15 1   
    35    14    50 1   
    36    14    65 1   
    37    15    16 1   
    38    15    51 1   
    39    15    52 1   
    40    16    33 1   
    41    16    66 2   
    42    17    18 1   
    43    17    19 1   
    44    17    53 1   
    45    18    19 1   
    46    18    54 1   
    47    18    55 1   
    48    19    56 1   
    49    19    57 1   
    50    22    23 2   
    51    22    24 2   
    52    22    67 1   
    53    25    26 1   
    54    26    27 1   
    55    26    34 2   
    56    27    28 1   
    57    27    58 1   
    58    28    29 ar  
    59    28    32 ar  
    60    29    59 1   
    61    30    31 ar  
    62    30    60 1   
    63    31    32 ar  
    64    31    33 1   
    65    34    35 1   
    66    35    36 1   
    67    36    61 1   
    68    36    62 1   
    69    36    63 1   
    70    45    67 1   
    71    46    67 1   
    72    47    67 1   
@<TRIPOS>SUBSTRUCTURE
     1 VEN         1 TEMP              0 ****  ****    0 ROOT
