@<TRIPOS>MOLECULE
VEN
   67    72     1     0     0
SMALL
No Charge or Current Charge


@<TRIPOS>ATOM
      1 C1         -15.3100   -46.6860    25.2280 c3         1 VEN      -0.108100
      2 C2         -14.5690   -45.5780    24.4560 c3         1 VEN       0.151700
      3 C8         -12.1100   -45.8250    25.3630 c5         1 VEN       0.139300
      4 C9         -10.8870   -46.2980    24.5950 ca         1 VEN      -0.098300
      5 C10         -9.5950   -46.4430    25.1150 ca         1 VEN      -0.057000
      6 C11         -8.5610   -46.8950    24.2730 ca         1 VEN       0.035000
      7 C12         -8.8430   -47.2080    22.9250 ca         1 VEN      -0.045000
      8 C13        -10.1470   -47.0590    22.3890 ca         1 VEN      -0.182500
      9 C14        -11.1660   -46.5990    23.2670 ca         1 VEN      -0.082600
     10 C15        -12.6260   -46.3600    23.0610 c          1 VEN       0.574600
     11 C21         -7.2050   -47.0710    24.7850 cc         1 VEN      -0.270000
     12 C27         -1.0520   -50.5600    25.8760 ca         1 VEN      -0.018000
     13 C32         -5.3200   -52.2610    23.9270 c5         1 VEN       0.101000
     14 C33         -5.9500   -53.6880    23.9390 c5         1 VEN      -0.096400
     15 C34         -4.6980   -54.5560    23.6780 c5         1 VEN      -0.164400
     16 C35         -3.6500   -53.8690    24.5440 c          1 VEN       0.572000
     17 C4         -14.7530   -44.2130    25.1150 cx         1 VEN      -0.150700
     18 C5         -14.5330   -42.9390    24.3330 cx         1 VEN      -0.121900
     19 C6         -15.9280   -43.3280    24.7690 cx         1 VEN      -0.121900
     20 N7         -13.1390   -45.9040    24.2860 n          1 VEN      -0.404800
     21 O16        -13.2850   -46.5440    22.0490 o          1 VEN      -0.539000
     22 S17        -10.4200   -47.4600    20.6350 sy         1 VEN       1.055500
     23 O18        -11.2380   -46.4070    20.0200 o          1 VEN      -0.518000
     24 O19         -9.1370   -47.8490    20.0340 o          1 VEN      -0.518000
     25 S22         -6.2530   -48.5130    24.6060 ss         1 VEN       0.052600
     26 C23         -4.9830   -47.6500    25.4550 cc         1 VEN       0.694300
     27 N24         -3.7490   -48.0850    25.7870 nu         1 VEN      -0.890800
     28 C25         -3.0640   -49.2570    25.6480 ca         1 VEN       0.638900
     29 C26         -1.7250   -49.3440    26.0380 ca         1 VEN      -0.238000
     30 C28         -1.7700   -51.6350    25.3350 ca         1 VEN      -0.210000
     31 C29         -3.1240   -51.4590    24.9790 ca         1 VEN       0.539900
     32 N30         -3.7500   -50.2750    25.1360 nb         1 VEN      -0.802000
     33 N31         -3.9370   -52.5080    24.4290 n          1 VEN      -0.405300
     34 N37         -5.2220   -46.4060    25.7990 nd         1 VEN      -0.738000
     35 C38         -6.5050   -46.0540    25.4060 cd         1 VEN       0.365300
     36 C39         -6.9810   -44.6500    25.6670 c3         1 VEN      -0.129400
     37 H1         -16.3800   -46.4570    25.2970 hc         1 VEN       0.043367
     38 H2         -15.2000   -47.6490    24.7150 hc         1 VEN       0.043367
     39 H3         -14.9120   -46.7890    26.2440 hc         1 VEN       0.043367
     40 H4         -15.0300   -45.5210    23.4600 h1         1 VEN       0.083700
     41 H5         -11.9820   -44.8000    25.7340 h1         1 VEN       0.065700
     42 H6         -12.3450   -46.4910    26.2040 h1         1 VEN       0.065700
     43 H7          -9.3990   -46.2200    26.1600 ha         1 VEN       0.127000
     44 H8          -8.0290   -47.5590    22.2950 ha         1 VEN       0.148000
     45 H9         -10.8670   -49.7190    21.2120 h1         1 VEN       0.107367
     46 H10        -12.3650   -48.7250    21.1940 h1         1 VEN       0.107367
     47 H11        -11.6200   -49.2520    19.6450 h1         1 VEN       0.107367
     48 H12         -0.0050   -50.6660    26.1570 ha         1 VEN       0.124000
     49 H13         -5.2890   -51.8430    22.9120 h1         1 VEN       0.064700
     50 H14         -6.7340   -53.8140    23.1820 hc         1 VEN       0.065200
     51 H15         -4.8010   -55.6180    23.9240 hc         1 VEN       0.083200
     52 H16         -4.4120   -54.4320    22.6270 hc         1 VEN       0.083200
     53 H17        -14.4300   -44.2040    26.1540 hc         1 VEN       0.075700
     54 H18        -14.2890   -43.0240    23.2770 hc         1 VEN       0.075700
     55 H19        -14.0540   -42.1080    24.8450 hc         1 VEN       0.075700
     56 H20        -16.3870   -42.7570    25.5730 hc         1 VEN       0.075700
     57 H21        -16.6210   -43.6700    24.0030 hc         1 VEN       0.075700
     58 H22         -3.2280   -47.3420    26.2270 hn         1 VEN       0.521000
     59 H23         -1.2120   -48.4810    26.4520 ha         1 VEN       0.130000
     60 H24         -1.2630   -52.5790    25.1740 ha         1 VEN       0.159000
     61 H25         -6.1380   -43.9570    25.7700 hc         1 VEN       0.052700
     62 H26         -7.6080   -44.2850    24.8450 hc         1 VEN       0.052700
     63 H27         -7.5670   -44.6030    26.5910 hc         1 VEN       0.052700
     64 H28         -5.8930   -51.5760    24.5650 h1         1 VEN       0.064700
     65 H29         -6.3910   -53.9150    24.9170 hc         1 VEN       0.065200
     66 O36         -2.8890   -54.3740    25.3550 o          1 VEN      -0.523000
     67 C20        -11.4270   -48.9450    20.6780 c3         1 VEN      -0.332100
@<TRIPOS>BOND
     1     1     2 1   
     2     1    37 1   
     3     1    38 1   
     4     1    39 1   
     5     2    17 1   
     6     2    20 1   
     7     2    40 1   
     8     3     4 1   
     9     3    20 1   
    10     3    41 1   
    11     3    42 1   
    12     4     5 ar  
    13     4     9 ar  
    14     5     6 ar  
    15     5    43 1   
    16     6     7 ar  
    17     6    11 1   
    18     7     8 ar  
    19     7    44 1   
    20     8     9 ar  
    21     8    22 1   
    22     9    10 1   
    23    10    20 1   
    24    10    21 2   
    25    11    25 1   
    26    11    35 2   
    27    12    29 ar  
    28    12    30 ar  
    29    12    48 1   
    30    13    14 1   
    31    13    33 1   
    32    13    49 1   
    33    13    64 1   
    34    14    15 1   
    35    14    50 1   
    36    14    65 1   
    37    15    16 1   
    38    15    51 1   
    39    15    52 1   
    40    16    33 1   
    41    16    66 2   
    42    17    18 1   
    43    17    19 1   
    44    17    53 1   
    45    18    19 1   
    46    18    54 1   
    47    18    55 1   
    48    19    56 1   
    49    19    57 1   
    50    22    23 2   
    51    22    24 2   
    52    22    67 1   
    53    25    26 1   
    54    26    27 1   
    55    26    34 2   
    56    27    28 1   
    57    27    58 1   
    58    28    29 ar  
    59    28    32 ar  
    60    29    59 1   
    61    30    31 ar  
    62    30    60 1   
    63    31    32 ar  
    64    31    33 1   
    65    34    35 1   
    66    35    36 1   
    67    36    61 1   
    68    36    62 1   
    69    36    63 1   
    70    45    67 1   
    71    46    67 1   
    72    47    67 1   
@<TRIPOS>SUBSTRUCTURE
     1 VEN         1 TEMP              0 ****  ****    0 ROOT
