@<TRIPOS>MOLECULE
VEO
   22    23     1     0     0
SMALL
No Charge or Current Charge


@<TRIPOS>ATOM
      1 C10         97.4820    16.8980    31.1990 ca         1 VEO      -0.062800
      2 C01         98.3550    21.1780    29.0340 c3         1 VEO       0.160900
      3 C03         97.8800    19.0090    30.1120 ca         1 VEO       0.077100
      4 C04         96.6160    18.8860    29.4660 ca         1 VEO      -0.200000
      5 C05         95.7980    17.7570    29.7000 ca         1 VEO      -0.095000
      6 C06         96.2710    16.7770    30.5810 ca         1 VEO      -0.097200
      7 C08         96.5040    14.8950    31.8860 cc         1 VEO      -0.082300
      8 C09         97.6220    15.7200    32.0130 cd         1 VEO      -0.276200
      9 C11         98.3210    17.9990    30.9940 ca         1 VEO      -0.111000
     10 C12         96.2910    13.5870    32.5780 c          1 VEO       0.727200
     11 N07         95.6710    15.5890    30.9770 na         1 VEO      -0.199700
     12 O02         98.7090    20.0950    29.9120 os         1 VEO      -0.358100
     13 O13         97.1550    13.1640    33.3360 o          1 VEO      -0.710500
     14 O14         95.2500    12.9820    32.3590 o          1 VEO      -0.710500
     15 H1          99.1520    21.9320    29.0210 h1         1 VEO       0.024033
     16 H2          98.2110    20.8170    28.0080 h1         1 VEO       0.024033
     17 H3          97.4310    21.6660    29.3700 h1         1 VEO       0.024033
     18 H4          96.2570    19.6500    28.7840 ha         1 VEO       0.092000
     19 H5          94.8320    17.6550    29.2110 ha         1 VEO       0.097000
     20 H6          98.4790    15.4950    32.6430 ha         1 VEO       0.206000
     21 H8          99.2810    18.0740    31.4970 ha         1 VEO       0.113000
     22 H7          94.7630    15.2590    30.6630 hn         1 VEO       0.359000
@<TRIPOS>BOND
     1     1     6 ar  
     2     1     8 1   
     3     1     9 ar  
     4     2    12 1   
     5     2    15 1   
     6     2    16 1   
     7     2    17 1   
     8     3     4 ar  
     9     3     9 ar  
    10     3    12 1   
    11     4     5 ar  
    12     4    18 1   
    13     5     6 ar  
    14     5    19 1   
    15     6    11 1   
    16     7     8 2   
    17     7    10 1   
    18     7    11 1   
    19     8    20 1   
    20     9    21 1   
    21    10    13 1   
    22    10    14 1   
    23    11    22 1   
@<TRIPOS>SUBSTRUCTURE
     1 VEO         1 TEMP              0 ****  ****    0 ROOT
