@<TRIPOS>MOLECULE
VEO
   22    23     1     0     0
SMALL
abcg2


@<TRIPOS>ATOM
      1 C10         97.5580    16.9010    31.2360 ca         1 VEO      -0.062800
      2 C01         98.2790    21.0880    29.0420 c3         1 VEO       0.160900
      3 C03         97.8760    19.0080    30.1270 ca         1 VEO       0.077100
      4 C04         96.6250    18.8660    29.4950 ca         1 VEO      -0.200000
      5 C05         95.8340    17.7540    29.7250 ca         1 VEO      -0.095000
      6 C06         96.3010    16.7780    30.5960 ca         1 VEO      -0.097200
      7 C08         96.5890    14.9720    31.8790 cc         1 VEO      -0.082300
      8 C09         97.7160    15.7370    32.0440 cd         1 VEO      -0.276200
      9 C11         98.3450    18.0310    30.9910 ca         1 VEO      -0.111000
     10 C12         96.2110    13.6490    32.4940 c          1 VEO       0.727200
     11 N07         95.7470    15.6010    31.0080 na         1 VEO      -0.199700
     12 O02         98.6850    20.0830    29.9420 os         1 VEO      -0.358100
     13 O13         97.0400    13.1520    33.2760 o          1 VEO      -0.710500
     14 O14         95.1010    13.1940    32.1520 o          1 VEO      -0.710500
     15 H1          99.0710    21.8340    29.0320 h1         1 VEO       0.024033
     16 H2          98.1490    20.7070    28.0240 h1         1 VEO       0.024033
     17 H3          97.3490    21.5730    29.3530 h1         1 VEO       0.024033
     18 H4          96.2590    19.6260    28.8190 ha         1 VEO       0.092000
     19 H5          94.8740    17.6600    29.2330 ha         1 VEO       0.097000
     20 H6          98.5580    15.4950    32.6730 ha         1 VEO       0.206000
     21 H8          99.3100    18.1510    31.4690 ha         1 VEO       0.113000
     22 H7          94.8540    15.2260    30.7340 hn         1 VEO       0.359000
@<TRIPOS>BOND
     1     1     6 ar  
     2     1     8 1   
     3     1     9 ar  
     4     2    12 1   
     5     2    15 1   
     6     2    16 1   
     7     2    17 1   
     8     3     4 ar  
     9     3     9 ar  
    10     3    12 1   
    11     4     5 ar  
    12     4    18 1   
    13     5     6 ar  
    14     5    19 1   
    15     6    11 1   
    16     7     8 2   
    17     7    10 1   
    18     7    11 1   
    19     8    20 1   
    20     9    21 1   
    21    10    13 1   
    22    10    14 1   
    23    11    22 1   
@<TRIPOS>SUBSTRUCTURE
     1 VEO         1 TEMP              0 ****  ****    0 ROOT
