@<TRIPOS>MOLECULE
VEP
   64    66     1     0     0
SMALL
No Charge or Current Charge


@<TRIPOS>ATOM
      1 N1           7.9630     2.0640    22.5230 ns         1 VEP      -0.495900
      2 C4           7.8330     1.7150    21.1920 c          1 VEP       0.594100
      3 C5           8.8490     3.1020    23.0550 c6         1 VEP       0.110700
      4 C6           8.3230     3.6040    24.4210 c6         1 VEP      -0.130900
      5 C7           9.3180     4.6090    25.0490 c6         1 VEP       0.156600
      6 C8          11.1960     3.5890    23.9130 c6         1 VEP       0.156600
      7 C10          6.8340     0.1430    19.4140 ca         1 VEP      -0.131300
      8 C13          5.9210     0.6270    17.2290 ca         1 VEP      -0.167000
      9 C15          8.5520    -0.8210    22.4130 ca         1 VEP      -0.069000
     10 C17         10.9950    -0.8600    22.2620 ca         1 VEP      -0.106000
     11 C20          8.6590    -1.2460    23.7500 ca         1 VEP      -0.103500
     12 C22         12.5540    -0.3600    25.5270 c3         1 VEP      -0.084433
     13 C24         12.6100    -2.8130    24.8870 c3         1 VEP      -0.084433
     14 O1           8.4000     2.3500    20.3100 o          1 VEP      -0.580100
     15 C9          10.2830     2.5440    23.2330 c6         1 VEP      -0.130900
     16 O2          10.6180     3.9940    25.1720 os         1 VEP      -0.449000
     17 C3           6.9540     0.4560    20.9140 c3         1 VEP       0.099000
     18 C14          6.0150     0.9420    18.5940 ca         1 VEP      -0.051000
     19 C12          6.6390    -0.4690    16.7270 ca         1 VEP       0.342900
     20 N2           7.4230    -1.2490    17.5030 nb         1 VEP      -0.672000
     21 C11          7.5140    -0.9430    18.8190 ca         1 VEP       0.377900
     22 N            7.2610    -0.7430    21.7650 n          1 VEP      -0.252400
     23 C2           6.2500    -1.7400    21.8830 c          1 VEP       0.604100
     24 O            5.0890    -1.5010    21.5710 o          1 VEP      -0.582100
     25 C1           6.6390    -3.1520    22.3770 c3         1 VEP      -0.150400
     26 C            5.8850    -4.3010    21.6700 c3         1 VEP      -0.079100
     27 C19          9.9150    -1.4110    24.3540 ca         1 VEP      -0.106000
     28 C18         11.1110    -1.2050    23.6300 ca         1 VEP      -0.056300
     29 C23         13.6900    -1.0900    23.4090 c3         1 VEP      -0.084433
     30 C16          9.7360    -0.6910    21.6620 ca         1 VEP      -0.103500
     31 H1           7.4910     1.4610    23.1860 hn         1 VEP       0.312500
     32 H2           8.8730     3.9470    22.3490 h1         1 VEP       0.081700
     33 H3           7.3420     4.0810    24.2960 hc         1 VEP       0.056700
     34 H4           8.1800     2.7580    25.1080 hc         1 VEP       0.056700
     35 H5           9.3980     5.5110    24.4250 h1         1 VEP       0.047950
     36 H6           8.9680     4.9110    26.0460 h1         1 VEP       0.047950
     37 H7          12.1900     3.1570    24.0970 h1         1 VEP       0.047950
     38 H8          11.3190     4.4700    23.2670 h1         1 VEP       0.047950
     39 H9           5.3020     1.2220    16.5640 ha         1 VEP       0.122000
     40 H10         11.8710    -0.7120    21.6380 ha         1 VEP       0.119500
     41 H11          7.7640    -1.4050    24.3470 ha         1 VEP       0.124500
     42 H12         11.7770    -0.5550    26.2750 hc         1 VEP       0.037033
     43 H13         13.5240    -0.4240    26.0350 hc         1 VEP       0.037033
     44 H14         12.4270     0.6690    25.1690 hc         1 VEP       0.037033
     45 H15         11.8350    -3.0390    25.6280 hc         1 VEP       0.037033
     46 H16         12.5190    -3.5400    24.0710 hc         1 VEP       0.037033
     47 H17         13.5830    -2.9650    25.3700 hc         1 VEP       0.037033
     48 H18         10.2590     1.6320    23.8440 hc         1 VEP       0.056700
     49 H19         10.7040     2.2610    22.2600 hc         1 VEP       0.056700
     50 H20          5.9600     0.7940    21.2320 h1         1 VEP       0.065700
     51 H21          5.4660     1.7880    19.0020 ha         1 VEP       0.114000
     52 H22          6.5820    -0.7340    15.6710 h4         1 VEP       0.016100
     53 H23          8.1460    -1.6030    19.4100 h4         1 VEP       0.020100
     54 H24          6.4340    -3.1920    23.4530 hc         1 VEP       0.063200
     55 H25          7.7200    -3.3000    22.2880 hc         1 VEP       0.063200
     56 H26          6.2210    -5.2720    22.0540 hc         1 VEP       0.042367
     57 H27          4.8040    -4.2250    21.8370 hc         1 VEP       0.042367
     58 H28          6.0720    -4.2780    20.5890 hc         1 VEP       0.042367
     59 H29          9.9500    -1.6990    25.4020 ha         1 VEP       0.119500
     60 H30         14.6370    -1.2030    23.9520 hc         1 VEP       0.037033
     61 H31         13.7080    -1.7940    22.5680 hc         1 VEP       0.037033
     62 H32         13.6590    -0.0680    23.0110 hc         1 VEP       0.037033
     63 H33          9.6960    -0.4330    20.6080 ha         1 VEP       0.124500
     64 C21         12.4790    -1.3640    24.3450 c3         1 VEP      -0.001700
@<TRIPOS>BOND
     1     1     2 1   
     2     1     3 1   
     3     1    31 1   
     4     2    14 2   
     5     2    17 1   
     6     3     4 1   
     7     3    15 1   
     8     3    32 1   
     9     4     5 1   
    10     4    33 1   
    11     4    34 1   
    12     5    16 1   
    13     5    35 1   
    14     5    36 1   
    15     6    15 1   
    16     6    16 1   
    17     6    37 1   
    18     6    38 1   
    19     7    17 1   
    20     7    18 ar  
    21     7    21 ar  
    22     8    18 ar  
    23     8    19 ar  
    24     8    39 1   
    25     9    11 ar  
    26     9    22 1   
    27     9    30 ar  
    28    10    28 ar  
    29    10    30 ar  
    30    10    40 1   
    31    11    27 ar  
    32    11    41 1   
    33    12    42 1   
    34    12    43 1   
    35    12    44 1   
    36    12    64 1   
    37    13    45 1   
    38    13    46 1   
    39    13    47 1   
    40    13    64 1   
    41    15    48 1   
    42    15    49 1   
    43    17    22 1   
    44    17    50 1   
    45    18    51 1   
    46    19    20 ar  
    47    19    52 1   
    48    20    21 ar  
    49    21    53 1   
    50    22    23 1   
    51    23    24 2   
    52    23    25 1   
    53    25    26 1   
    54    25    54 1   
    55    25    55 1   
    56    26    56 1   
    57    26    57 1   
    58    26    58 1   
    59    27    28 ar  
    60    27    59 1   
    61    28    64 1   
    62    29    60 1   
    63    29    61 1   
    64    29    62 1   
    65    29    64 1   
    66    30    63 1   
@<TRIPOS>SUBSTRUCTURE
     1 VEP         1 TEMP              0 ****  ****    0 ROOT
