@<TRIPOS>MOLECULE
VEP
   64    66     1     0     0
SMALL
abcg2


@<TRIPOS>ATOM
      1 N1           7.9190     1.9930    22.5490 ns         1 VEP      -0.495900
      2 C4           8.0770     1.3760    21.3710 c          1 VEP       0.594100
      3 C5           8.8480     2.9780    23.0650 c6         1 VEP       0.110700
      4 C6           8.1160     4.0110    23.9150 c6         1 VEP      -0.130900
      5 C7           9.1180     4.9880    24.5100 c6         1 VEP       0.156600
      6 C8          10.8540     3.4210    24.4800 c6         1 VEP       0.156600
      7 C10          6.6770     0.3250    19.6190 ca         1 VEP      -0.131300
      8 C13          5.2800     1.0730    17.8270 ca         1 VEP      -0.167000
      9 C15          8.7790    -1.1310    22.2010 ca         1 VEP      -0.069000
     10 C17         11.1760    -1.3410    22.1810 ca         1 VEP      -0.106000
     11 C20          8.8120    -1.1250    23.5900 ca         1 VEP      -0.103500
     12 C22         12.7100    -0.1440    25.1740 c3         1 VEP      -0.084433
     13 C24         12.4920    -2.6350    25.2980 c3         1 VEP      -0.084433
     14 O1           8.9480     1.6500    20.5640 o          1 VEP      -0.580100
     15 C9           9.9660     2.3400    23.8860 c6         1 VEP      -0.130900
     16 O2          10.1170     4.3360    25.2610 os         1 VEP      -0.449000
     17 C3           7.0290     0.2880    21.0820 c3         1 VEP       0.099000
     18 C14          5.5510     1.0070    19.1840 ca         1 VEP      -0.051000
     19 C12          6.1510     0.4480    16.9490 ca         1 VEP       0.342900
     20 N2           7.2320    -0.2130    17.3510 nb         1 VEP      -0.672000
     21 C11          7.4830    -0.2660    18.6520 ca         1 VEP       0.377900
     22 N            7.5350    -1.0190    21.5130 n          1 VEP      -0.252400
     23 C2           6.6590    -2.0670    21.4430 c          1 VEP       0.604100
     24 O            5.5280    -1.9030    21.0220 o          1 VEP      -0.582100
     25 C1           7.1690    -3.4190    21.8920 c3         1 VEP      -0.150400
     26 C            6.2500    -4.5590    21.4880 c3         1 VEP      -0.079100
     27 C19         10.0180    -1.2350    24.2590 ca         1 VEP      -0.106000
     28 C18         11.2290    -1.3400    23.5720 ca         1 VEP      -0.056300
     29 C23         13.7500    -1.5830    23.4350 c3         1 VEP      -0.084433
     30 C16          9.9690    -1.2400    21.5010 ca         1 VEP      -0.103500
     31 H1           7.2060     1.6550    23.1770 hn         1 VEP       0.312500
     32 H2           9.2880     3.4880    22.2040 h1         1 VEP       0.081700
     33 H3           7.3900     4.5610    23.3110 hc         1 VEP       0.056700
     34 H4           7.5630     3.5110    24.7180 hc         1 VEP       0.056700
     35 H5           9.5730     5.5770    23.7000 h1         1 VEP       0.047950
     36 H6           8.6160     5.6880    25.1810 h1         1 VEP       0.047950
     37 H7          11.6110     2.9810    25.1330 h1         1 VEP       0.047950
     38 H8          11.3840     3.9470    23.6720 h1         1 VEP       0.047950
     39 H9           4.4070     1.5920    17.4550 ha         1 VEP       0.122000
     40 H10         12.0810    -1.4250    21.5950 ha         1 VEP       0.119500
     41 H11          7.8920    -1.0340    24.1550 ha         1 VEP       0.124500
     42 H12         11.9040    -0.0120    25.8970 hc         1 VEP       0.037033
     43 H13         13.6490    -0.1730    25.7300 hc         1 VEP       0.037033
     44 H14         12.7290     0.7370    24.5300 hc         1 VEP       0.037033
     45 H15         11.6710    -2.5630    26.0110 hc         1 VEP       0.037033
     46 H16         12.3770    -3.5680    24.7440 hc         1 VEP       0.037033
     47 H17         13.4210    -2.6960    25.8690 hc         1 VEP       0.037033
     48 H18          9.5310     1.7350    24.6860 hc         1 VEP       0.056700
     49 H19         10.5640     1.6660    23.2680 hc         1 VEP       0.056700
     50 H20          6.1230     0.5210    21.6510 h1         1 VEP       0.065700
     51 H21          4.8880     1.4800    19.8980 ha         1 VEP       0.114000
     52 H22          5.9680     0.4770    15.8810 h4         1 VEP       0.016100
     53 H23          8.3680    -0.8200    18.9440 h4         1 VEP       0.020100
     54 H24          7.2850    -3.4020    22.9800 hc         1 VEP       0.063200
     55 H25          8.1750    -3.5810    21.4970 hc         1 VEP       0.063200
     56 H26          6.6490    -5.5010    21.8600 hc         1 VEP       0.042367
     57 H27          5.2480    -4.4380    21.8980 hc         1 VEP       0.042367
     58 H28          6.1620    -4.6410    20.4050 hc         1 VEP       0.042367
     59 H29         10.0050    -1.2210    25.3420 ha         1 VEP       0.119500
     60 H30         14.6580    -1.6390    24.0380 hc         1 VEP       0.037033
     61 H31         13.6990    -2.4950    22.8370 hc         1 VEP       0.037033
     62 H32         13.8640    -0.7380    22.7530 hc         1 VEP       0.037033
     63 H33          9.9630    -1.2540    20.4190 ha         1 VEP       0.124500
     64 C21         12.5370    -1.4280    24.3510 c3         1 VEP      -0.001700
@<TRIPOS>BOND
     1     1     2 1   
     2     1     3 1   
     3     1    31 1   
     4     2    14 2   
     5     2    17 1   
     6     3     4 1   
     7     3    15 1   
     8     3    32 1   
     9     4     5 1   
    10     4    33 1   
    11     4    34 1   
    12     5    16 1   
    13     5    35 1   
    14     5    36 1   
    15     6    15 1   
    16     6    16 1   
    17     6    37 1   
    18     6    38 1   
    19     7    17 1   
    20     7    18 ar  
    21     7    21 ar  
    22     8    18 ar  
    23     8    19 ar  
    24     8    39 1   
    25     9    11 ar  
    26     9    22 1   
    27     9    30 ar  
    28    10    28 ar  
    29    10    30 ar  
    30    10    40 1   
    31    11    27 ar  
    32    11    41 1   
    33    12    42 1   
    34    12    43 1   
    35    12    44 1   
    36    12    64 1   
    37    13    45 1   
    38    13    46 1   
    39    13    47 1   
    40    13    64 1   
    41    15    48 1   
    42    15    49 1   
    43    17    22 1   
    44    17    50 1   
    45    18    51 1   
    46    19    20 ar  
    47    19    52 1   
    48    20    21 ar  
    49    21    53 1   
    50    22    23 1   
    51    23    24 2   
    52    23    25 1   
    53    25    26 1   
    54    25    54 1   
    55    25    55 1   
    56    26    56 1   
    57    26    57 1   
    58    26    58 1   
    59    27    28 ar  
    60    27    59 1   
    61    28    64 1   
    62    29    60 1   
    63    29    61 1   
    64    29    62 1   
    65    29    64 1   
    66    30    63 1   
@<TRIPOS>SUBSTRUCTURE
     1 VEP         1 TEMP              0 ****  ****    0 ROOT
