@<TRIPOS>MOLECULE
VEQ
   72    76     1     0     0
SMALL
No Charge or Current Charge


@<TRIPOS>ATOM
      1 C1         -15.2160   -47.4620    24.3270 c3         1 VEQ      -0.108100
      2 C2         -14.4400   -46.2610    23.7540 c3         1 VEQ       0.149700
      3 C8         -12.0760   -46.5050    24.8930 c5         1 VEQ       0.139300
      4 C9         -10.7690   -46.9050    24.2270 ca         1 VEQ      -0.101300
      5 C10         -9.5290   -47.0820    24.8570 ca         1 VEQ      -0.050000
      6 C11         -8.4130   -47.4740    24.0880 ca         1 VEQ       0.019000
      7 C12         -8.5630   -47.6990    22.7000 ca         1 VEQ      -0.021000
      8 C13         -9.8110   -47.5150    22.0630 ca         1 VEQ      -0.219500
      9 C14        -10.9110   -47.1140    22.8630 ca         1 VEQ      -0.082600
     10 C15        -12.3430   -46.8810    22.5190 c          1 VEQ       0.573600
     11 C21        -11.4240   -50.1010    20.8410 ca         1 VEQ       0.239000
     12 C22        -10.3640   -50.9830    21.1270 ca         1 VEQ      -0.121500
     13 C24        -11.8940   -52.4860    22.2940 ca         1 VEQ      -0.087300
     14 N26        -12.9450   -54.7740    22.3330 n3         1 VEQ      -0.717600
     15 C27        -13.3590   -55.9100    23.1850 c3         1 VEQ       0.150100
     16 C30        -12.7190   -50.4270    21.2770 ca         1 VEQ      -0.121500
     17 C31         -7.1120   -47.6850    24.7170 cc         1 VEQ      -0.259000
     18 C33         -4.9560   -48.3220    25.5620 cc         1 VEQ       0.539300
     19 C35         -3.2130   -50.0670    25.7150 c          1 VEQ       0.605100
     20 C4         -14.7460   -44.9750    24.5190 cx         1 VEQ      -0.150700
     21 C5         -14.4930   -43.6230    23.8930 cx         1 VEQ      -0.121400
     22 C6         -15.9100   -44.0920    24.1320 cx         1 VEQ      -0.121400
     23 N7         -12.9900   -46.5310    23.7120 n          1 VEQ      -0.395800
     24 O16        -12.8800   -46.9970    21.4250 o          1 VEQ      -0.565000
     25 S17         -9.9620   -47.8270    20.2930 sy         1 VEQ       1.136600
     26 O18        -10.4830   -46.6310    19.6300 o          1 VEQ      -0.523500
     27 O19         -8.7830   -48.5360    19.7870 o          1 VEQ      -0.523500
     28 N20        -11.2380   -48.9080    20.1470 nu         1 VEQ      -0.851100
     29 C23        -10.5960   -52.1670    21.8500 ca         1 VEQ      -0.087500
     30 C25        -12.1520   -53.7680    23.0820 c3         1 VEQ       0.212100
     31 C28        -12.2890   -55.2210    21.0810 c3         1 VEQ       0.150100
     32 C29        -12.9550   -51.6090    22.0010 ca         1 VEQ      -0.087500
     33 S32         -6.1460   -49.1160    24.5450 ss         1 VEQ       0.090600
     34 N34         -3.7570   -48.8370    25.9780 ns         1 VEQ      -0.473400
     35 O36         -3.7620   -50.9170    25.0330 o          1 VEQ      -0.566100
     36 C37         -1.8480   -50.3000    26.3470 c3         1 VEQ      -0.172100
     37 N38         -5.2440   -47.0940    25.9590 nd         1 VEQ      -0.716000
     38 C39         -6.4840   -46.7120    25.4660 cd         1 VEQ       0.347300
     39 C40         -6.9880   -45.3270    25.7680 c3         1 VEQ      -0.126400
     40 H1         -16.2950   -47.2710    24.3010 hc         1 VEQ       0.044367
     41 H2         -15.0140   -48.3640    23.7380 hc         1 VEQ       0.044367
     42 H3         -14.9250   -47.6560    25.3660 hc         1 VEQ       0.044367
     43 H4         -14.7920   -46.1160    22.7230 h1         1 VEQ       0.084700
     44 H5         -12.0110   -45.5030    25.3400 h1         1 VEQ       0.067200
     45 H6         -12.3790   -47.2280    25.6620 h1         1 VEQ       0.067200
     46 H7          -9.4370   -46.9330    25.9290 ha         1 VEQ       0.127000
     47 H8          -7.6960   -48.0120    22.1210 ha         1 VEQ       0.153000
     48 H9          -9.3560   -50.7680    20.7900 ha         1 VEQ       0.132000
     49 H11        -13.9170   -55.5560    24.0620 h1         1 VEQ       0.032033
     50 H12        -14.0100   -56.5970    22.6270 h1         1 VEQ       0.032033
     51 H13        -12.4850   -56.4750    23.5370 h1         1 VEQ       0.032033
     52 H14        -13.5510   -49.7620    21.0610 ha         1 VEQ       0.132000
     53 H15        -14.5370   -45.0620    25.5830 hc         1 VEQ       0.076700
     54 H16        -14.1340   -43.5940    22.8670 hc         1 VEQ       0.076200
     55 H17        -14.1030   -42.8340    24.5330 hc         1 VEQ       0.076200
     56 H18        -16.4740   -43.6180    24.9320 hc         1 VEQ       0.076200
     57 H19        -16.5030   -44.3740    23.2650 hc         1 VEQ       0.076200
     58 H20        -12.0290   -48.2710    20.2120 hn         1 VEQ       0.513000
     59 H21         -9.7660   -52.8380    22.0630 ha         1 VEQ       0.122500
     60 H22        -11.1910   -54.2020    23.3910 h1         1 VEQ       0.039200
     61 H23        -12.6830   -53.4910    24.0030 h1         1 VEQ       0.039200
     62 H24        -12.9260   -55.9350    20.5430 h1         1 VEQ       0.032033
     63 H25        -12.0990   -54.3730    20.4100 h1         1 VEQ       0.032033
     64 H26        -11.3300   -55.7120    21.2960 h1         1 VEQ       0.032033
     65 H27        -13.9630   -51.8480    22.3330 ha         1 VEQ       0.122500
     66 H28         -3.1960   -48.2300    26.5560 hn         1 VEQ       0.341500
     67 H29         -1.4420   -51.2920    26.1180 hc         1 VEQ       0.071033
     68 H30         -1.1660   -49.5020    26.0330 hc         1 VEQ       0.071033
     69 H31         -1.9210   -50.1340    27.4280 hc         1 VEQ       0.071033
     70 H32         -6.1620   -44.6440    26.0000 hc         1 VEQ       0.052367
     71 H33         -7.5310   -44.9070    24.9140 hc         1 VEQ       0.052367
     72 H34         -7.6640   -45.3370    26.6310 hc         1 VEQ       0.052367
@<TRIPOS>BOND
     1     1     2 1   
     2     1    40 1   
     3     1    41 1   
     4     1    42 1   
     5     2    20 1   
     6     2    23 1   
     7     2    43 1   
     8     3     4 1   
     9     3    23 1   
    10     3    44 1   
    11     3    45 1   
    12     4     5 ar  
    13     4     9 ar  
    14     5     6 ar  
    15     5    46 1   
    16     6     7 ar  
    17     6    17 1   
    18     7     8 ar  
    19     7    47 1   
    20     8     9 ar  
    21     8    25 1   
    22     9    10 1   
    23    10    23 1   
    24    10    24 2   
    25    11    12 ar  
    26    11    16 ar  
    27    11    28 1   
    28    12    29 ar  
    29    12    48 1   
    30    13    29 ar  
    31    13    30 1   
    32    13    32 ar  
    33    14    15 1   
    34    14    30 1   
    35    14    31 1   
    36    15    49 1   
    37    15    50 1   
    38    15    51 1   
    39    16    32 ar  
    40    16    52 1   
    41    17    33 1   
    42    17    38 2   
    43    18    33 1   
    44    18    34 1   
    45    18    37 2   
    46    19    34 1   
    47    19    35 2   
    48    19    36 1   
    49    20    21 1   
    50    20    22 1   
    51    20    53 1   
    52    21    22 1   
    53    21    54 1   
    54    21    55 1   
    55    22    56 1   
    56    22    57 1   
    57    25    26 2   
    58    25    27 2   
    59    25    28 1   
    60    28    58 1   
    61    29    59 1   
    62    30    60 1   
    63    30    61 1   
    64    31    62 1   
    65    31    63 1   
    66    31    64 1   
    67    32    65 1   
    68    34    66 1   
    69    36    67 1   
    70    36    68 1   
    71    36    69 1   
    72    37    38 1   
    73    38    39 1   
    74    39    70 1   
    75    39    71 1   
    76    39    72 1   
@<TRIPOS>SUBSTRUCTURE
     1 VEQ         1 TEMP              0 ****  ****    0 ROOT
