@<TRIPOS>MOLECULE
VEQ
   72    76     1     0     0
SMALL
abcg2


@<TRIPOS>ATOM
      1 C1         -15.2540   -47.4580    23.6760 c3         1 VEQ      -0.108100
      2 C2         -14.5220   -46.1500    23.3990 c3         1 VEQ       0.149700
      3 C8         -12.2960   -46.3970    24.6110 c5         1 VEQ       0.139300
      4 C9         -10.9550   -46.8260    24.1140 ca         1 VEQ      -0.101300
      5 C10         -9.7970   -47.0500    24.8360 ca         1 VEQ      -0.050000
      6 C11         -8.6500   -47.4690    24.1620 ca         1 VEQ       0.019000
      7 C12         -8.7100   -47.6770    22.7750 ca         1 VEQ      -0.021000
      8 C13         -9.8750   -47.4490    22.0690 ca         1 VEQ      -0.219500
      9 C14        -11.0110   -47.0110    22.7440 ca         1 VEQ      -0.082600
     10 C15        -12.3990   -46.7280    22.2970 c          1 VEQ       0.573600
     11 C21        -11.0640   -50.0350    20.7120 ca         1 VEQ       0.239000
     12 C22        -10.0660   -50.9850    20.5330 ca         1 VEQ      -0.121500
     13 C24        -11.1420   -52.4470    22.1400 ca         1 VEQ      -0.087300
     14 N26        -12.4570   -54.3300    23.0380 n3         1 VEQ      -0.717600
     15 C27        -12.5040   -55.3380    24.0750 c3         1 VEQ       0.150100
     16 C30        -12.1110   -50.3030    21.5900 ca         1 VEQ      -0.121500
     17 C31         -7.4000   -47.6990    24.8780 cc         1 VEQ      -0.259000
     18 C33         -5.2780   -48.5200    25.6840 cc         1 VEQ       0.539300
     19 C35         -3.6710   -50.2910    25.3090 c          1 VEQ       0.605100
     20 C4         -14.9110   -45.0730    24.3780 cx         1 VEQ      -0.150700
     21 C5         -14.6910   -43.6360    24.0240 cx         1 VEQ      -0.121400
     22 C6         -16.0800   -44.1990    24.0520 cx         1 VEQ      -0.121400
     23 N7         -13.0800   -46.3540    23.3980 n          1 VEQ      -0.395800
     24 O16        -12.8650   -46.8300    21.1700 o          1 VEQ      -0.565000
     25 S17         -9.8480   -47.7050    20.3050 sy         1 VEQ       1.136600
     26 O18        -10.2250   -46.4740    19.6400 o          1 VEQ      -0.523500
     27 O19         -8.5740   -48.3210    19.9860 o          1 VEQ      -0.523500
     28 N20        -11.0470   -48.8110    19.9890 nu         1 VEQ      -0.851100
     29 C23        -10.1100   -52.1730    21.2500 ca         1 VEQ      -0.087500
     30 C25        -11.1480   -53.7160    22.9540 c3         1 VEQ       0.212100
     31 C28        -12.8810   -54.8730    21.7660 c3         1 VEQ       0.150100
     32 C29        -12.1520   -51.4990    22.2860 ca         1 VEQ      -0.087500
     33 S32         -6.3780   -49.0470    24.4670 ss         1 VEQ       0.090600
     34 N34         -4.1120   -49.1800    25.9700 ns         1 VEQ      -0.473400
     35 O36         -4.3240   -50.7780    24.4060 o          1 VEQ      -0.566100
     36 C37         -2.3390   -50.8150    25.7580 c3         1 VEQ      -0.172100
     37 N38         -5.6290   -47.4530    26.3290 nd         1 VEQ      -0.716000
     38 C39         -6.8280   -46.9720    25.8840 cd         1 VEQ       0.347300
     39 C40         -7.3580   -45.7190    26.4940 c3         1 VEQ      -0.126400
     40 H1         -16.3320   -47.3000    23.6300 hc         1 VEQ       0.044367
     41 H2         -14.9950   -48.2210    22.9410 hc         1 VEQ       0.044367
     42 H3         -15.0130   -47.8440    24.6680 hc         1 VEQ       0.044367
     43 H4         -14.7800   -45.8060    22.3940 h1         1 VEQ       0.084700
     44 H5         -12.2550   -45.4200    25.0990 h1         1 VEQ       0.067200
     45 H6         -12.7070   -47.1110    25.3310 h1         1 VEQ       0.067200
     46 H7          -9.7910   -46.9290    25.9110 ha         1 VEQ       0.127000
     47 H8          -7.8220   -48.0020    22.2490 ha         1 VEQ       0.153000
     48 H9          -9.2680   -50.8150    19.8240 ha         1 VEQ       0.132000
     49 H11        -12.2440   -54.8980    25.0390 h1         1 VEQ       0.032033
     50 H12        -13.5140   -55.7420    24.1540 h1         1 VEQ       0.032033
     51 H13        -11.8200   -56.1820    23.8940 h1         1 VEQ       0.032033
     52 H14        -12.9070   -49.5810    21.7240 ha         1 VEQ       0.132000
     53 H15        -14.7970   -45.3400    25.4250 hc         1 VEQ       0.076700
     54 H16        -14.2530   -43.4160    23.0580 hc         1 VEQ       0.076200
     55 H17        -14.3950   -42.9550    24.8120 hc         1 VEQ       0.076200
     56 H18        -16.7390   -43.9070    24.8590 hc         1 VEQ       0.076200
     57 H19        -16.5820   -44.3590    23.1050 hc         1 VEQ       0.076200
     58 H20        -11.9450   -48.3300    19.9830 hn         1 VEQ       0.513000
     59 H21         -9.3260   -52.9060    21.1000 ha         1 VEQ       0.122500
     60 H22        -10.3880   -54.4090    22.5530 h1         1 VEQ       0.039200
     61 H23        -10.8270   -53.4720    23.9720 h1         1 VEQ       0.039200
     62 H24        -13.8900   -55.2770    21.8520 h1         1 VEQ       0.032033
     63 H25        -12.9020   -54.0940    21.0030 h1         1 VEQ       0.032033
     64 H26        -12.2250   -55.6800    21.4040 h1         1 VEQ       0.032033
     65 H27        -12.9780   -51.6970    22.9560 ha         1 VEQ       0.122500
     66 H28         -3.5620   -48.7870    26.7210 hn         1 VEQ       0.341500
     67 H29         -2.2930   -51.8900    25.6030 hc         1 VEQ       0.071033
     68 H30         -1.5540   -50.3550    25.1560 hc         1 VEQ       0.071033
     69 H31         -2.1310   -50.5930    26.8030 hc         1 VEQ       0.071033
     70 H32         -6.5380   -45.0420    26.7290 hc         1 VEQ       0.052367
     71 H33         -8.0490   -45.2030    25.8300 hc         1 VEQ       0.052367
     72 H34         -7.8870   -45.9270    27.4270 hc         1 VEQ       0.052367
@<TRIPOS>BOND
     1     1     2 1   
     2     1    40 1   
     3     1    41 1   
     4     1    42 1   
     5     2    20 1   
     6     2    23 1   
     7     2    43 1   
     8     3     4 1   
     9     3    23 1   
    10     3    44 1   
    11     3    45 1   
    12     4     5 ar  
    13     4     9 ar  
    14     5     6 ar  
    15     5    46 1   
    16     6     7 ar  
    17     6    17 1   
    18     7     8 ar  
    19     7    47 1   
    20     8     9 ar  
    21     8    25 1   
    22     9    10 1   
    23    10    23 1   
    24    10    24 2   
    25    11    12 ar  
    26    11    16 ar  
    27    11    28 1   
    28    12    29 ar  
    29    12    48 1   
    30    13    29 ar  
    31    13    30 1   
    32    13    32 ar  
    33    14    15 1   
    34    14    30 1   
    35    14    31 1   
    36    15    49 1   
    37    15    50 1   
    38    15    51 1   
    39    16    32 ar  
    40    16    52 1   
    41    17    33 1   
    42    17    38 2   
    43    18    33 1   
    44    18    34 1   
    45    18    37 2   
    46    19    34 1   
    47    19    35 2   
    48    19    36 1   
    49    20    21 1   
    50    20    22 1   
    51    20    53 1   
    52    21    22 1   
    53    21    54 1   
    54    21    55 1   
    55    22    56 1   
    56    22    57 1   
    57    25    26 2   
    58    25    27 2   
    59    25    28 1   
    60    28    58 1   
    61    29    59 1   
    62    30    60 1   
    63    30    61 1   
    64    31    62 1   
    65    31    63 1   
    66    31    64 1   
    67    32    65 1   
    68    34    66 1   
    69    36    67 1   
    70    36    68 1   
    71    36    69 1   
    72    37    38 1   
    73    38    39 1   
    74    39    70 1   
    75    39    71 1   
    76    39    72 1   
@<TRIPOS>SUBSTRUCTURE
     1 VEQ         1 TEMP              0 ****  ****    0 ROOT
