@<TRIPOS>MOLECULE
VES
   14    14     1     0     0
SMALL
No Charge or Current Charge


@<TRIPOS>ATOM
      1 N5          -1.2160     0.2290    -0.3880 n7         1 VES      -0.823400
      2 C4          -0.6780    -1.0630     0.0930 c5         1 VES       0.131300
      3 C3           0.8690    -0.8840     0.0780 c5         1 VES      -0.114400
      4 C2           1.0710     0.6450    -0.1440 c5         1 VES      -0.114400
      5 C1          -0.3130     1.2180     0.2280 c5         1 VES       0.131300
      6 H41C        -1.0260    -1.2600     1.1180 h1         1 VES       0.053200
      7 H42C        -1.0070    -1.9030    -0.5350 h1         1 VES       0.053200
      8 H11C        -0.4680     2.2300    -0.1750 h1         1 VES       0.053200
      9 H12C        -0.4530     1.2570     1.3180 h1         1 VES       0.053200
     10 H31C         1.3100    -1.2200     1.0240 hc         1 VES       0.045700
     11 H32C         1.3400    -1.4680    -0.7210 hc         1 VES       0.045700
     12 H21C         1.8750     1.0610     0.4740 hc         1 VES       0.045700
     13 H22C         1.3190     0.8640    -1.1900 hc         1 VES       0.045700
     14 H2          -1.0820     0.2730    -1.4060 hn         1 VES       0.395000
@<TRIPOS>BOND
     1     1     2 1   
     2     1     5 1   
     3     1    14 1   
     4     2     3 1   
     5     2     6 1   
     6     2     7 1   
     7     3     4 1   
     8     3    10 1   
     9     3    11 1   
    10     4     5 1   
    11     4    12 1   
    12     4    13 1   
    13     5     8 1   
    14     5     9 1   
@<TRIPOS>SUBSTRUCTURE
     1 VES         1 TEMP              0 ****  ****    0 ROOT
