@<TRIPOS>MOLECULE
VES
   14    14     1     0     0
SMALL
abcg2


@<TRIPOS>ATOM
      1 N5          -1.2500     0.1920    -0.3250 n7         1 VES      -0.823400
      2 C4          -0.6450    -1.0520     0.1390 c5         1 VES       0.131300
      3 C3           0.8810    -0.8910    -0.0080 c5         1 VES      -0.114400
      4 C2           1.1000     0.6360    -0.0210 c5         1 VES      -0.114400
      5 C1          -0.3190     1.2200     0.1270 c5         1 VES       0.131300
      6 H41C        -0.9040    -1.1960     1.1920 h1         1 VES       0.053200
      7 H42C        -1.0440    -1.9050    -0.4100 h1         1 VES       0.053200
      8 H11C        -0.4660     2.1450    -0.4310 h1         1 VES       0.053200
      9 H12C        -0.5240     1.4400     1.1790 h1         1 VES       0.053200
     10 H31C         1.4210    -1.3840     0.8010 hc         1 VES       0.045700
     11 H32C         1.2260    -1.3390    -0.9420 hc         1 VES       0.045700
     12 H21C         1.7630     0.9720     0.7770 hc         1 VES       0.045700
     13 H22C         1.5460     0.9550    -0.9640 hc         1 VES       0.045700
     14 H2          -1.2440     0.1870    -1.3390 hn         1 VES       0.395000
@<TRIPOS>BOND
     1     1     2 1   
     2     1     5 1   
     3     1    14 1   
     4     2     3 1   
     5     2     6 1   
     6     2     7 1   
     7     3     4 1   
     8     3    10 1   
     9     3    11 1   
    10     4     5 1   
    11     4    12 1   
    12     4    13 1   
    13     5     8 1   
    14     5     9 1   
@<TRIPOS>SUBSTRUCTURE
     1 VES         1 TEMP              0 ****  ****    0 ROOT
