@<TRIPOS>MOLECULE
VEV
   53    54     1     0     0
SMALL
No Charge or Current Charge


@<TRIPOS>ATOM
      1 N1           7.1100     2.0420    23.0720 ns         1 VEV      -0.502900
      2 C4           7.8010     1.2780    22.1510 c          1 VEV       0.590100
      3 C5           7.6550     3.2330    23.7270 c3         1 VEV       0.092300
      4 C6           6.4690     0.5190    20.1940 ca         1 VEV      -0.133300
      5 C7           7.3340     0.6010    19.0820 ca         1 VEV       0.378900
      6 C8           5.6240     1.3210    17.6940 ca         1 VEV       0.342900
      7 C10          5.1160     0.8650    20.0190 ca         1 VEV      -0.052000
      8 C13         11.3310    -2.0700    22.1760 ca         1 VEV      -0.104000
      9 C15         10.2430    -1.4870    24.2600 ca         1 VEV      -0.104000
     10 C17         12.7140    -2.1640    24.3860 c3         1 VEV      -0.001700
     11 C20         12.4570    -3.3050    25.4080 c3         1 VEV      -0.083767
     12 O1           8.9260     1.5960    21.7830 o          1 VEV      -0.576100
     13 C3           7.0020     0.0770    21.5580 c3         1 VEV       0.100000
     14 C9           4.6930     1.2720    18.7440 ca         1 VEV      -0.167000
     15 N2           6.9270     0.9940    17.8510 nb         1 VEV      -0.672000
     16 N            7.7330    -1.2350    21.4880 n          1 VEV      -0.251400
     17 C2           6.9940    -2.3850    21.0760 c          1 VEV       0.605100
     18 O            5.8250    -2.2980    20.7190 o          1 VEV      -0.584100
     19 C1           7.6970    -3.7620    21.0750 c3         1 VEV      -0.151400
     20 C            6.7880    -4.9850    20.8120 c3         1 VEV      -0.078100
     21 C11          8.9980    -1.3430    22.1650 ca         1 VEV      -0.066000
     22 C16          9.0480    -1.2360    23.5660 ca         1 VEV      -0.101000
     23 C14         11.4130    -1.8970    23.5800 ca         1 VEV      -0.053300
     24 C19         13.9110    -2.5850    23.4880 c3         1 VEV      -0.083767
     25 C18         13.1200    -0.8730    25.1470 c3         1 VEV      -0.083767
     26 C12         10.1330    -1.8180    21.4860 ca         1 VEV      -0.101000
     27 H1           6.1690     1.7480    23.3090 hn         1 VEV       0.315500
     28 H2           6.9150     3.6380    24.4280 h1         1 VEV       0.042367
     29 H3           8.5670     2.9660    24.2780 h1         1 VEV       0.042367
     30 H4           7.8940     3.9930    22.9730 h1         1 VEV       0.042367
     31 H5           8.3880     0.3440    19.1780 h4         1 VEV       0.023100
     32 H6           5.3190     1.6330    16.6950 h4         1 VEV       0.016100
     33 H7           4.4110     0.8180    20.8470 ha         1 VEV       0.114000
     34 H8          12.1830    -2.4060    21.5950 ha         1 VEV       0.117500
     35 H9          10.2470    -1.3710    25.3400 ha         1 VEV       0.117500
     36 H10         11.6810    -3.0320    26.1320 hc         1 VEV       0.036700
     37 H11         12.1330    -4.2180    24.8940 hc         1 VEV       0.036700
     38 H12         13.3680    -3.5390    25.9720 hc         1 VEV       0.036700
     39 H13          6.1460    -0.0820    22.2260 h1         1 VEV       0.063700
     40 H14          3.6570     1.5460    18.5650 ha         1 VEV       0.122000
     41 H15          8.2510    -3.8760    22.0140 hc         1 VEV       0.063700
     42 H16          8.5100    -3.7200    20.3430 hc         1 VEV       0.063700
     43 H17          7.3750    -5.9100    20.8360 hc         1 VEV       0.042033
     44 H18          6.0030    -5.0570    21.5750 hc         1 VEV       0.042033
     45 H19          6.3090    -4.9100    19.8280 hc         1 VEV       0.042033
     46 H20          8.1580    -0.9560    24.1250 ha         1 VEV       0.120500
     47 H21         14.8130    -2.7510    24.0910 hc         1 VEV       0.036700
     48 H22         13.6980    -3.5190    22.9550 hc         1 VEV       0.036700
     49 H23         14.1460    -1.8070    22.7520 hc         1 VEV       0.036700
     50 H24         12.3560    -0.5710    25.8720 hc         1 VEV       0.036700
     51 H25         14.0570    -1.0200    25.6980 hc         1 VEV       0.036700
     52 H26         13.2670    -0.0420    24.4460 hc         1 VEV       0.036700
     53 H27         10.0980    -1.9680    20.4100 ha         1 VEV       0.120500
@<TRIPOS>BOND
     1     1     2 1   
     2     1     3 1   
     3     1    27 1   
     4     2    12 2   
     5     2    13 1   
     6     3    28 1   
     7     3    29 1   
     8     3    30 1   
     9     4     5 ar  
    10     4     7 ar  
    11     4    13 1   
    12     5    15 ar  
    13     5    31 1   
    14     6    14 ar  
    15     6    15 ar  
    16     6    32 1   
    17     7    14 ar  
    18     7    33 1   
    19     8    23 ar  
    20     8    26 ar  
    21     8    34 1   
    22     9    22 ar  
    23     9    23 ar  
    24     9    35 1   
    25    10    11 1   
    26    10    23 1   
    27    10    24 1   
    28    10    25 1   
    29    11    36 1   
    30    11    37 1   
    31    11    38 1   
    32    13    16 1   
    33    13    39 1   
    34    14    40 1   
    35    16    17 1   
    36    16    21 1   
    37    17    18 2   
    38    17    19 1   
    39    19    20 1   
    40    19    41 1   
    41    19    42 1   
    42    20    43 1   
    43    20    44 1   
    44    20    45 1   
    45    21    22 ar  
    46    21    26 ar  
    47    22    46 1   
    48    24    47 1   
    49    24    48 1   
    50    24    49 1   
    51    25    50 1   
    52    25    51 1   
    53    25    52 1   
    54    26    53 1   
@<TRIPOS>SUBSTRUCTURE
     1 VEV         1 TEMP              0 ****  ****    0 ROOT
