@<TRIPOS>MOLECULE
VEV
   53    54     1     0     0
SMALL
bcc


@<TRIPOS>ATOM
      1 N1           7.5300     1.4350    23.3080 ns         1 VEV      -0.569900
      2 C4           7.8350     1.0640    22.0620 c          1 VEV       0.657100
      3 C5           8.3770     2.3180    24.0750 c3         1 VEV       0.092300
      4 C6           6.5720     0.3920    20.0410 ca         1 VEV      -0.198600
      5 C7           7.4600     0.1650    18.9960 ca         1 VEV       0.444200
      6 C8           6.0910     1.1590    17.4720 ca         1 VEV       0.408200
      7 C10          5.3850     1.0440    19.7420 ca         1 VEV      -0.070000
      8 C13         11.1690    -1.6810    22.1460 ca         1 VEV      -0.122000
      9 C15         10.0540    -1.6350    24.2510 ca         1 VEV      -0.122000
     10 C17         12.5750    -1.8100    24.2860 c3         1 VEV      -0.001700
     11 C20         12.5510    -3.0260    25.2230 c3         1 VEV      -0.083767
     12 O1           8.7750     1.5180    21.4320 o          1 VEV      -0.576100
     13 C3           6.8950     0.0080    21.4610 c3         1 VEV       0.100000
     14 C9           5.1360     1.4370    18.4360 ca         1 VEV      -0.250300
     15 N2           7.2310     0.5320    17.7420 nb         1 VEV      -0.672000
     16 N            7.5170    -1.3150    21.5670 n          1 VEV      -0.411000
     17 C2           6.7360    -2.3870    21.2380 c          1 VEV       0.672100
     18 O            5.5980    -2.2260    20.8350 o          1 VEV      -0.584100
     19 C1           7.3660    -3.7560    21.3760 c3         1 VEV      -0.151400
     20 C            6.4190    -4.8840    21.0040 c3         1 VEV      -0.078100
     21 C11          8.7730    -1.4730    22.2230 ca         1 VEV       0.026600
     22 C16          8.8330    -1.5220    23.6110 ca         1 VEV      -0.119000
     23 C14         11.2520    -1.7140    23.5350 ca         1 VEV      -0.053300
     24 C19         13.7700    -1.9550    23.3460 c3         1 VEV      -0.083767
     25 C18         12.7610    -0.5330    25.1180 c3         1 VEV      -0.083767
     26 C12          9.9480    -1.5540    21.4960 ca         1 VEV      -0.119000
     27 H1           6.7570     0.9930    23.7770 hn         1 VEV       0.315500
     28 H2           7.8790     2.5440    25.0130 h1         1 VEV       0.042367
     29 H3           9.3400     1.8540    24.2950 h1         1 VEV       0.042367
     30 H4           8.5560     3.2520    23.5450 h1         1 VEV       0.042367
     31 H5           8.3970    -0.3500    19.1770 h4         1 VEV       0.023100
     32 H6           5.9290     1.4500    16.4400 h4         1 VEV       0.016100
     33 H7           4.6570     1.2390    20.5210 ha         1 VEV       0.132000
     34 H8          12.0610    -1.7450    21.5380 ha         1 VEV       0.135500
     35 H9          10.0660    -1.6600    25.3340 ha         1 VEV       0.135500
     36 H10         11.7470    -2.9610    25.9560 hc         1 VEV       0.036700
     37 H11         12.4240    -3.9540    24.6630 hc         1 VEV       0.036700
     38 H12         13.4920    -3.0930    25.7730 hc         1 VEV       0.036700
     39 H13          5.9610     0.0000    22.0320 h1         1 VEV       0.063700
     40 H14          4.2200     1.9440    18.1690 ha         1 VEV       0.140000
     41 H15          7.7260    -3.8900    22.3990 hc         1 VEV       0.063700
     42 H16          8.2610    -3.7880    20.7490 hc         1 VEV       0.063700
     43 H17          6.9340    -5.8400    21.0960 hc         1 VEV       0.042033
     44 H18          5.5490    -4.9120    21.6580 hc         1 VEV       0.042033
     45 H19          6.0650    -4.7960    19.9780 hc         1 VEV       0.042033
     46 H20          7.9230    -1.4740    24.1960 ha         1 VEV       0.138500
     47 H21         14.6880    -2.0220    23.9310 hc         1 VEV       0.036700
     48 H22         13.7040    -2.8590    22.7360 hc         1 VEV       0.036700
     49 H23         13.8740    -1.1010    22.6740 hc         1 VEV       0.036700
     50 H24         11.9650    -0.4080    25.8550 hc         1 VEV       0.036700
     51 H25         13.7080    -0.5680    25.6600 hc         1 VEV       0.036700
     52 H26         12.7710     0.3550    24.4830 hc         1 VEV       0.036700
     53 H27          9.9180    -1.5230    20.4140 ha         1 VEV       0.138500
@<TRIPOS>BOND
     1     1     2 1   
     2     1     3 1   
     3     1    27 1   
     4     2    12 2   
     5     2    13 1   
     6     3    28 1   
     7     3    29 1   
     8     3    30 1   
     9     4     5 ar  
    10     4     7 ar  
    11     4    13 1   
    12     5    15 ar  
    13     5    31 1   
    14     6    14 ar  
    15     6    15 ar  
    16     6    32 1   
    17     7    14 ar  
    18     7    33 1   
    19     8    23 ar  
    20     8    26 ar  
    21     8    34 1   
    22     9    22 ar  
    23     9    23 ar  
    24     9    35 1   
    25    10    11 1   
    26    10    23 1   
    27    10    24 1   
    28    10    25 1   
    29    11    36 1   
    30    11    37 1   
    31    11    38 1   
    32    13    16 1   
    33    13    39 1   
    34    14    40 1   
    35    16    17 1   
    36    16    21 1   
    37    17    18 2   
    38    17    19 1   
    39    19    20 1   
    40    19    41 1   
    41    19    42 1   
    42    20    43 1   
    43    20    44 1   
    44    20    45 1   
    45    21    22 ar  
    46    21    26 ar  
    47    22    46 1   
    48    24    47 1   
    49    24    48 1   
    50    24    49 1   
    51    25    50 1   
    52    25    51 1   
    53    25    52 1   
    54    26    53 1   
@<TRIPOS>SUBSTRUCTURE
     1 VEV         1 TEMP              0 ****  ****    0 ROOT
