@<TRIPOS>MOLECULE
VEW
   67    71     1     0     0
SMALL
abcg2


@<TRIPOS>ATOM
      1 C1         -15.0610   -47.0860    24.9080 c3         1 VEW      -0.102100
      2 C2         -14.3300   -46.2450    23.8700 c3         1 VEW       0.148700
      3 C8         -12.0200   -46.5190    24.8990 c5         1 VEW       0.138300
      4 C9         -10.7190   -46.9430    24.3030 ca         1 VEW      -0.098300
      5 C10         -9.4980   -47.1130    24.9280 ca         1 VEW      -0.049000
      6 C11         -8.4020   -47.5280    24.1710 ca         1 VEW       0.018000
      7 C12         -8.5700   -47.7520    22.7950 ca         1 VEW      -0.028000
      8 C13         -9.8050   -47.6050    22.1930 ca         1 VEW      -0.228500
      9 C14        -10.8990   -47.2080    22.9580 ca         1 VEW      -0.082600
     10 C15        -12.3390   -47.0300    22.6350 c          1 VEW       0.578600
     11 C21        -10.9500   -50.3260    21.1530 ca         1 VEW       0.277000
     12 C22        -12.1470   -50.9430    21.5180 ca         1 VEW      -0.095000
     13 C24        -10.9490   -52.6320    22.7460 ca         1 VEW      -0.045000
     14 O28         -8.2920   -54.1020    22.9510 o          1 VEW      -0.519000
     15 C30         -8.2400   -52.1500    24.7140 c3         1 VEW      -0.340100
     16 C31         -7.1040   -47.7700    24.7900 cc         1 VEW      -0.250000
     17 C33         -4.9560   -48.6960    25.4440 cc         1 VEW       0.586300
     18 C35         -3.2210   -50.4970    25.1190 c          1 VEW       0.619100
     19 C4         -14.4760   -44.7650    24.1380 cx         1 VEW      -0.158700
     20 C5         -14.2350   -43.7910    23.0300 cx         1 VEW      -0.120400
     21 C6         -15.6280   -44.0280    23.5300 cx         1 VEW      -0.120400
     22 N7         -12.9260   -46.6170    23.7790 n          1 VEW      -0.397800
     23 O16        -12.8990   -47.2330    21.5690 o          1 VEW      -0.560000
     24 S17         -9.9360   -47.9320    20.4480 sy         1 VEW       1.154600
     25 O18        -10.5430   -46.8090    19.7680 o          1 VEW      -0.512500
     26 O19         -8.6430   -48.4160    20.0020 o          1 VEW      -0.512500
     27 N20        -11.0230   -49.1830    20.3400 nu         1 VEW      -0.869100
     28 C23        -12.1420   -52.0890    22.2940 ca         1 VEW      -0.100000
     29 C25         -9.7700   -51.9950    22.3920 ca         1 VEW      -0.231500
     30 C26         -9.7430   -50.8660    21.5900 ca         1 VEW      -0.065000
     31 S27         -8.2300   -52.6450    23.0050 sy         1 VEW       1.053500
     32 O29         -7.1340   -51.9620    22.3200 o          1 VEW      -0.519000
     33 S32         -6.1340   -49.1080    24.2540 ss         1 VEW      -0.008400
     34 N34         -3.7790   -49.3610    25.6670 ns         1 VEW      -0.487400
     35 O36         -2.1370   -50.8600    25.5210 o          1 VEW      -0.551100
     36 C37         -3.9810   -51.2280    24.0540 c3         1 VEW      -0.185100
     37 N38         -5.2560   -47.6570    26.1600 nd         1 VEW      -0.720000
     38 C39         -6.4610   -47.1230    25.8070 cd         1 VEW       0.366300
     39 C40         -6.9360   -45.9080    26.5310 c3         1 VEW      -0.130400
     40 H1         -16.1240   -46.8460    24.8870 hc         1 VEW       0.043700
     41 H2         -14.9480   -48.1500    24.7040 hc         1 VEW       0.043700
     42 H3         -14.7000   -46.8880    25.9190 hc         1 VEW       0.043700
     43 H4         -14.7550   -46.4610    22.8890 h1         1 VEW       0.085700
     44 H5         -11.9680   -45.4990    25.2910 h1         1 VEW       0.068700
     45 H6         -12.3220   -47.1740    25.7210 h1         1 VEW       0.068700
     46 H7          -9.4070   -46.9630    25.9960 ha         1 VEW       0.129000
     47 H8          -7.7170   -48.0440    22.1980 ha         1 VEW       0.157000
     48 H9         -13.0890   -50.5230    21.1900 ha         1 VEW       0.130000
     49 H10        -10.9500   -53.5240    23.3580 ha         1 VEW       0.134000
     50 H11         -8.3210   -51.0680    24.7800 h1         1 VEW       0.102367
     51 H12         -9.0780   -52.6250    25.2190 h1         1 VEW       0.102367
     52 H13         -7.3000   -52.4820    25.1550 h1         1 VEW       0.102367
     53 H14        -14.1830   -44.4480    25.1350 hc         1 VEW       0.076700
     54 H15        -13.9710   -44.1870    22.0560 hc         1 VEW       0.077200
     55 H16        -13.7550   -42.8510    23.2710 hc         1 VEW       0.077200
     56 H17        -16.1040   -43.2530    24.1150 hc         1 VEW       0.077200
     57 H18        -16.3070   -44.5840    22.8940 hc         1 VEW       0.077200
     58 H19        -11.9640   -48.8160    20.2250 hn         1 VEW       0.520000
     59 H20        -13.0810   -52.5570    22.5560 ha         1 VEW       0.123000
     60 H21         -8.7930   -50.4370    21.3080 ha         1 VEW       0.164000
     61 H22         -3.2180   -48.9300    26.3940 hn         1 VEW       0.341500
     62 H23         -3.4150   -52.1090    23.7630 hc         1 VEW       0.078033
     63 H24         -4.9610   -51.5560    24.4060 hc         1 VEW       0.078033
     64 H25         -4.1260   -50.6090    23.1670 hc         1 VEW       0.078033
     65 H26         -6.0900   -45.2740    26.7900 hc         1 VEW       0.055700
     66 H27         -7.6320   -45.3230    25.9330 hc         1 VEW       0.055700
     67 H28         -7.4400   -46.1770    27.4610 hc         1 VEW       0.055700
@<TRIPOS>BOND
     1     1     2 1   
     2     1    40 1   
     3     1    41 1   
     4     1    42 1   
     5     2    19 1   
     6     2    22 1   
     7     2    43 1   
     8     3     4 1   
     9     3    22 1   
    10     3    44 1   
    11     3    45 1   
    12     4     5 ar  
    13     4     9 ar  
    14     5     6 ar  
    15     5    46 1   
    16     6     7 ar  
    17     6    16 1   
    18     7     8 ar  
    19     7    47 1   
    20     8     9 ar  
    21     8    24 1   
    22     9    10 1   
    23    10    22 1   
    24    10    23 2   
    25    11    12 ar  
    26    11    27 1   
    27    11    30 ar  
    28    12    28 ar  
    29    12    48 1   
    30    13    28 ar  
    31    13    29 ar  
    32    13    49 1   
    33    14    31 2   
    34    15    31 1   
    35    15    50 1   
    36    15    51 1   
    37    15    52 1   
    38    16    33 1   
    39    16    38 2   
    40    17    33 1   
    41    17    34 1   
    42    17    37 2   
    43    18    34 1   
    44    18    35 2   
    45    18    36 1   
    46    19    20 1   
    47    19    21 1   
    48    19    53 1   
    49    20    21 1   
    50    20    54 1   
    51    20    55 1   
    52    21    56 1   
    53    21    57 1   
    54    24    25 2   
    55    24    26 2   
    56    24    27 1   
    57    27    58 1   
    58    28    59 1   
    59    29    30 ar  
    60    29    31 1   
    61    30    60 1   
    62    31    32 2   
    63    34    61 1   
    64    36    62 1   
    65    36    63 1   
    66    36    64 1   
    67    37    38 1   
    68    38    39 1   
    69    39    65 1   
    70    39    66 1   
    71    39    67 1   
@<TRIPOS>SUBSTRUCTURE
     1 VEW         1 TEMP              0 ****  ****    0 ROOT
