@<TRIPOS>MOLECULE
VEW
   67    71     1     0     0
SMALL
No Charge or Current Charge


@<TRIPOS>ATOM
      1 C1         -14.8680   -46.9710    25.4760 c3         1 VEW      -0.102100
      2 C2         -14.2430   -46.5300    24.1350 c3         1 VEW       0.148700
      3 C8         -11.8580   -46.9160    25.2050 c5         1 VEW       0.138300
      4 C9         -10.5530   -47.1850    24.4720 ca         1 VEW      -0.098300
      5 C10         -9.2960   -47.3970    25.0550 ca         1 VEW      -0.049000
      6 C11         -8.1860   -47.6600    24.2260 ca         1 VEW       0.018000
      7 C12         -8.3560   -47.7150    22.8250 ca         1 VEW      -0.028000
      8 C13         -9.6240   -47.4980    22.2360 ca         1 VEW      -0.228500
      9 C14        -10.7190   -47.2400    23.0970 ca         1 VEW      -0.082600
     10 C15        -12.1690   -47.0330    22.8100 c          1 VEW       0.578600
     11 C21        -11.1420   -50.0090    20.8890 ca         1 VEW       0.277000
     12 C22        -12.4310   -50.5430    21.0630 ca         1 VEW      -0.095000
     13 C24        -11.5180   -52.4230    22.3160 ca         1 VEW      -0.045000
     14 O28         -9.1430   -54.1280    23.1740 o          1 VEW      -0.519000
     15 C30         -8.6470   -51.9060    24.4790 c3         1 VEW      -0.340100
     16 C31         -6.8700   -47.9260    24.8000 cc         1 VEW      -0.250000
     17 C33         -4.6860   -48.6400    25.5210 cc         1 VEW       0.586300
     18 C35         -2.8180   -50.3200    25.5050 c          1 VEW       0.619100
     19 C4         -14.4650   -45.0330    23.9130 cx         1 VEW      -0.158700
     20 C5         -14.6350   -44.4500    22.5290 cx         1 VEW      -0.120400
     21 C6         -15.8100   -44.4980    23.4770 cx         1 VEW      -0.120400
     22 N7         -12.8040   -46.8600    24.0490 n          1 VEW      -0.397800
     23 O16        -12.7260   -47.0540    21.7200 o          1 VEW      -0.560000
     24 S17         -9.8070   -47.6400    20.4470 sy         1 VEW       1.154600
     25 O18        -10.4190   -46.4240    19.9110 o          1 VEW      -0.512500
     26 O19         -8.6100   -48.2360    19.8470 o          1 VEW      -0.512500
     27 N20        -11.0150   -48.7820    20.2380 nu         1 VEW      -0.869100
     28 C23        -12.6190   -51.7460    21.7670 ca         1 VEW      -0.100000
     29 C25        -10.2190   -51.9030    22.1460 ca         1 VEW      -0.231500
     30 C26        -10.0360   -50.7040    21.4230 ca         1 VEW      -0.065000
     31 S27         -8.7960   -52.7290    22.8930 sy         1 VEW       1.053500
     32 O29         -7.5900   -52.3790    22.1310 o          1 VEW      -0.519000
     33 S32         -5.8730   -49.2880    24.4040 ss         1 VEW      -0.008400
     34 N34         -3.4650   -49.1620    25.8590 ns         1 VEW      -0.487400
     35 O36         -1.6920   -50.5140    25.9320 o          1 VEW      -0.551100
     36 C37         -3.4930   -51.3580    24.6140 c3         1 VEW      -0.185100
     37 N38         -4.9950   -47.4880    26.0900 nd         1 VEW      -0.720000
     38 C39         -6.2480   -47.0610    25.6750 cd         1 VEW       0.366300
     39 C40         -6.7710   -45.7460    26.1860 c3         1 VEW      -0.130400
     40 H1         -15.9480   -46.7870    25.4750 hc         1 VEW       0.043700
     41 H2         -14.7080   -48.0440    25.6390 hc         1 VEW       0.043700
     42 H3         -14.4300   -46.4220    26.3180 hc         1 VEW       0.043700
     43 H4         -14.7630   -47.0800    23.3390 h1         1 VEW       0.085700
     44 H5         -11.8270   -45.9650    25.7540 h1         1 VEW       0.068700
     45 H6         -12.1050   -47.7300    25.8990 h1         1 VEW       0.068700
     46 H7          -9.1880   -47.3800    26.1370 ha         1 VEW       0.129000
     47 H8          -7.4930   -47.9320    22.1990 ha         1 VEW       0.157000
     48 H9         -13.2930   -50.0210    20.6590 ha         1 VEW       0.130000
     49 H10        -11.6810   -53.3440    22.8750 ha         1 VEW       0.134000
     50 H11         -8.5170   -50.8340    24.2970 h1         1 VEW       0.102367
     51 H12         -9.5660   -52.0900    25.0460 h1         1 VEW       0.102367
     52 H13         -7.7790   -52.3210    25.0010 h1         1 VEW       0.102367
     53 H14        -13.9160   -44.4270    24.6310 hc         1 VEW       0.076700
     54 H15        -14.6490   -45.1270    21.6780 hc         1 VEW       0.077200
     55 H16        -14.1820   -43.4810    22.3290 hc         1 VEW       0.077200
     56 H17        -16.1490   -43.5620    23.9150 hc         1 VEW       0.077200
     57 H18        -16.6030   -45.2130    23.2630 hc         1 VEW       0.077200
     58 H19        -11.8480   -48.2000    20.2890 hn         1 VEW       0.520000
     59 H20        -13.6220   -52.1460    21.8990 ha         1 VEW       0.123000
     60 H21         -9.0330   -50.3100    21.2960 ha         1 VEW       0.164000
     61 H22         -2.9260   -48.5840    26.4850 hn         1 VEW       0.341500
     62 H23         -2.8670   -52.2470    24.4780 hc         1 VEW       0.078033
     63 H24         -4.4690   -51.6250    25.0330 hc         1 VEW       0.078033
     64 H25         -3.7320   -50.9050    23.6460 hc         1 VEW       0.078033
     65 H26         -5.9520   -45.0860    26.4930 hc         1 VEW       0.055700
     66 H27         -7.3450   -45.2210    25.4150 hc         1 VEW       0.055700
     67 H28         -7.4220   -45.8970    27.0540 hc         1 VEW       0.055700
@<TRIPOS>BOND
     1     1     2 1   
     2     1    40 1   
     3     1    41 1   
     4     1    42 1   
     5     2    19 1   
     6     2    22 1   
     7     2    43 1   
     8     3     4 1   
     9     3    22 1   
    10     3    44 1   
    11     3    45 1   
    12     4     5 ar  
    13     4     9 ar  
    14     5     6 ar  
    15     5    46 1   
    16     6     7 ar  
    17     6    16 1   
    18     7     8 ar  
    19     7    47 1   
    20     8     9 ar  
    21     8    24 1   
    22     9    10 1   
    23    10    22 1   
    24    10    23 2   
    25    11    12 ar  
    26    11    27 1   
    27    11    30 ar  
    28    12    28 ar  
    29    12    48 1   
    30    13    28 ar  
    31    13    29 ar  
    32    13    49 1   
    33    14    31 2   
    34    15    31 1   
    35    15    50 1   
    36    15    51 1   
    37    15    52 1   
    38    16    33 1   
    39    16    38 2   
    40    17    33 1   
    41    17    34 1   
    42    17    37 2   
    43    18    34 1   
    44    18    35 2   
    45    18    36 1   
    46    19    20 1   
    47    19    21 1   
    48    19    53 1   
    49    20    21 1   
    50    20    54 1   
    51    20    55 1   
    52    21    56 1   
    53    21    57 1   
    54    24    25 2   
    55    24    26 2   
    56    24    27 1   
    57    27    58 1   
    58    28    59 1   
    59    29    30 ar  
    60    29    31 1   
    61    30    60 1   
    62    31    32 2   
    63    34    61 1   
    64    36    62 1   
    65    36    63 1   
    66    36    64 1   
    67    37    38 1   
    68    38    39 1   
    69    39    65 1   
    70    39    66 1   
    71    39    67 1   
@<TRIPOS>SUBSTRUCTURE
     1 VEW         1 TEMP              0 ****  ****    0 ROOT
