@<TRIPOS>MOLECULE
VEX
   28    28     1     0     0
SMALL
abcg2


@<TRIPOS>ATOM
      1 C7          21.3020     8.9070     0.2170 c3         1 VEX       0.146900
      2 C8          19.6120     7.9770    -2.8630 c3         1 VEX       0.151900
      3 C9          17.8550    10.9070    -4.0910 c3         1 VEX       0.218900
      4 O1          21.4130     9.6940    -0.9810 os         1 VEX      -0.344100
      5 C1          20.0520    11.6290    -0.4440 ca         1 VEX       0.117100
      6 C5          19.6320    10.3170    -2.4340 ca         1 VEX       0.118100
      7 C6          20.3590    10.5240    -1.2610 ca         1 VEX       0.051100
      8 C4          18.5930    11.1780    -2.8070 ca         1 VEX      -0.118300
      9 C3          18.2930    12.2470    -1.9770 ca         1 VEX      -0.048000
     10 O3          16.8000    11.8540    -4.2540 oh         1 VEX      -0.672000
     11 C2          19.0100    12.4770    -0.8050 ca         1 VEX      -0.194000
     12 O           20.8400    11.8020     0.6510 os         1 VEX      -0.344100
     13 C           20.5750    12.9180     1.4990 c3         1 VEX       0.146900
     14 H1          22.1340     8.2070     0.1950 h1         1 VEX       0.038700
     15 H2          21.3660     9.5340     1.1060 h1         1 VEX       0.038700
     16 H3          20.3590     8.3560     0.2230 h1         1 VEX       0.038700
     17 H4          19.7950     7.3180    -3.7090 h1         1 VEX       0.037700
     18 H5          20.2240     7.6640    -2.0170 h1         1 VEX       0.037700
     19 H6          18.5550     7.9360    -2.5880 h1         1 VEX       0.037700
     20 H7          17.4530     9.8880    -4.0780 h1         1 VEX       0.035700
     21 H8          18.5520    10.9640    -4.9350 h1         1 VEX       0.035700
     22 H9          17.4900    12.9170    -2.2470 ha         1 VEX       0.136000
     23 H10         16.3660    11.6680    -5.0940 ho         1 VEX       0.445000
     24 H11         18.7590    13.3260    -0.1870 ha         1 VEX       0.120000
     25 H12         21.3160    12.8690     2.2930 h1         1 VEX       0.043033
     26 H13         20.6810    13.8590     0.9540 h1         1 VEX       0.043033
     27 H14         19.5720    12.8560     1.9280 h1         1 VEX       0.043033
     28 O2          19.9650     9.2980    -3.2960 os         1 VEX      -0.361100
@<TRIPOS>BOND
     1     1     4 1   
     2     1    14 1   
     3     1    15 1   
     4     1    16 1   
     5     2    17 1   
     6     2    18 1   
     7     2    19 1   
     8     2    28 1   
     9     3     8 1   
    10     3    10 1   
    11     3    20 1   
    12     3    21 1   
    13     4     7 1   
    14     5     7 ar  
    15     5    11 ar  
    16     5    12 1   
    17     6     7 ar  
    18     6     8 ar  
    19     6    28 1   
    20     8     9 ar  
    21     9    11 ar  
    22     9    22 1   
    23    10    23 1   
    24    11    24 1   
    25    12    13 1   
    26    13    25 1   
    27    13    26 1   
    28    13    27 1   
@<TRIPOS>SUBSTRUCTURE
     1 VEX         1 TEMP              0 ****  ****    0 ROOT
