@<TRIPOS>MOLECULE
VEX
   28    28     1     0     0
SMALL
No Charge or Current Charge


@<TRIPOS>ATOM
      1 C7          21.3040     8.9720     0.5230 c3         1 VEX       0.146900
      2 C8          19.8270     7.7840    -2.9930 c3         1 VEX       0.151900
      3 C9          17.8590    11.3090    -4.2910 c3         1 VEX       0.218900
      4 O1          20.5900     9.1010    -0.7200 os         1 VEX      -0.344100
      5 C1          19.8700    11.4630    -0.4220 ca         1 VEX       0.117100
      6 C5          19.2580    10.1830    -2.4470 ca         1 VEX       0.118100
      7 C6          19.9210    10.2410    -1.1730 ca         1 VEX       0.051100
      8 C4          18.5740    11.3210    -2.9400 ca         1 VEX      -0.118300
      9 C3          18.5380    12.5020    -2.1870 ca         1 VEX      -0.048000
     10 O3          16.4500    11.1200    -4.1060 oh         1 VEX      -0.672000
     11 C2          19.1760    12.5750    -0.9470 ca         1 VEX      -0.194000
     12 O           20.4930    11.5690     0.8120 os         1 VEX      -0.344100
     13 C           20.4760    12.7670     1.6100 c3         1 VEX       0.146900
     14 H1          21.7260     7.9630     0.6100 h1         1 VEX       0.038700
     15 H2          22.1350     9.6860     0.5750 h1         1 VEX       0.038700
     16 H3          20.6350     9.1270     1.3790 h1         1 VEX       0.038700
     17 H4          19.6350     7.0870    -3.8180 h1         1 VEX       0.037700
     18 H5          20.9150     7.8740    -2.8810 h1         1 VEX       0.037700
     19 H6          19.4020     7.3450    -2.0810 h1         1 VEX       0.037700
     20 H7          18.2690    10.5270    -4.9440 h1         1 VEX       0.035700
     21 H8          18.0460    12.2660    -4.7970 h1         1 VEX       0.035700
     22 H9          18.0070    13.3730    -2.5680 ha         1 VEX       0.136000
     23 H10         16.0490    11.1010    -5.0030 ho         1 VEX       0.445000
     24 H11         19.1150    13.5150    -0.4060 ha         1 VEX       0.120000
     25 H12         21.0340    12.6100     2.5410 h1         1 VEX       0.043033
     26 H13         20.9430    13.6020     1.0730 h1         1 VEX       0.043033
     27 H14         19.4480    13.0470     1.8750 h1         1 VEX       0.043033
     28 O2          19.2290     9.0620    -3.2770 os         1 VEX      -0.361100
@<TRIPOS>BOND
     1     1     4 1   
     2     1    14 1   
     3     1    15 1   
     4     1    16 1   
     5     2    17 1   
     6     2    18 1   
     7     2    19 1   
     8     2    28 1   
     9     3     8 1   
    10     3    10 1   
    11     3    20 1   
    12     3    21 1   
    13     4     7 1   
    14     5     7 ar  
    15     5    11 ar  
    16     5    12 1   
    17     6     7 ar  
    18     6     8 ar  
    19     6    28 1   
    20     8     9 ar  
    21     9    11 ar  
    22     9    22 1   
    23    10    23 1   
    24    11    24 1   
    25    12    13 1   
    26    13    25 1   
    27    13    26 1   
    28    13    27 1   
@<TRIPOS>SUBSTRUCTURE
     1 VEX         1 TEMP              0 ****  ****    0 ROOT
