@<TRIPOS>MOLECULE
VEY
   56    57     1     0     0
SMALL
No Charge or Current Charge


@<TRIPOS>ATOM
      1 N1           7.6490    -1.1040    21.9890 n          1 VEY      -0.249400
      2 C4           6.6900    -2.1560    21.9270 c          1 VEY       0.603100
      3 C5           7.1570    -3.6150    22.1260 c3         1 VEY      -0.149400
      4 C6           6.4520    -4.6370    21.2050 c3         1 VEY      -0.079100
      5 C7           8.9560    -1.2370    22.5970 ca         1 VEY      -0.069000
      6 C8           9.1110    -1.9160    23.8200 ca         1 VEY      -0.103000
      7 C10         11.5560    -1.7420    23.6750 ca         1 VEY      -0.056300
      8 C13         12.9460    -1.9940    24.3180 c3         1 VEY      -0.001700
      9 C15         13.1400    -3.5170    24.5430 c3         1 VEY      -0.083767
     10 C17          7.1290     0.1800    19.8510 ca         1 VEY      -0.129300
     11 C20          6.1390     1.0070    17.8070 ca         1 VEY      -0.166000
     12 C21          6.2470     1.0670    19.2050 ca         1 VEY      -0.052000
     13 O1           5.5110    -1.9210    21.6860 o          1 VEY      -0.583100
     14 C12         10.1170    -0.9020    21.8730 ca         1 VEY      -0.103000
     15 C11         11.3950    -1.1290    22.4100 ca         1 VEY      -0.105500
     16 C16         14.1240    -1.4850    23.4390 c3         1 VEY      -0.083767
     17 C14         13.0180    -1.2560    25.6820 c3         1 VEY      -0.083767
     18 C9          10.3870    -2.1430    24.3600 ca         1 VEY      -0.105500
     19 C3           7.2670     0.2150    21.3810 c3         1 VEY       0.097000
     20 C2           8.0910     1.4440    21.8770 c          1 VEY       0.591100
     21 O            8.6200     2.2490    21.1200 o          1 VEY      -0.581100
     22 N            8.2140     1.5590    23.2500 ns         1 VEY      -0.499900
     23 C1           9.0530     2.5400    23.9370 c3         1 VEY       0.104000
     24 C           10.5260     2.0970    23.9780 c3         1 VEY      -0.116100
     25 N2           7.7520    -0.7930    17.7060 nb         1 VEY      -0.672000
     26 C19          6.9050     0.0680    17.0990 ca         1 VEY       0.342900
     27 C18          7.8560    -0.7330    19.0550 ca         1 VEY       0.378900
     28 H1           6.9700    -3.8810    23.1720 hc         1 VEY       0.062700
     29 H2           8.2430    -3.6860    22.0030 hc         1 VEY       0.062700
     30 H3           6.8420    -5.6460    21.3850 hc         1 VEY       0.042367
     31 H4           5.3710    -4.6530    21.3900 hc         1 VEY       0.042367
     32 H5           6.6210    -4.3880    20.1500 hc         1 VEY       0.042367
     33 H6           8.2380    -2.2360    24.3840 ha         1 VEY       0.124500
     34 H7          12.3920    -3.9230    25.2340 hc         1 VEY       0.036811
     35 H8          13.0540    -4.0620    23.5940 hc         1 VEY       0.036811
     36 H9          14.1300    -3.7290    24.9660 hc         1 VEY       0.036811
     37 H11          5.6610     1.7880    19.7720 ha         1 VEY       0.114000
     38 H12         10.0420    -0.4400    20.8930 ha         1 VEY       0.124500
     39 H13         12.2490    -0.8200    21.8160 ha         1 VEY       0.119000
     40 H14         15.0870    -1.6720    23.9300 hc         1 VEY       0.036811
     41 H15         14.1450    -1.9970    22.4700 hc         1 VEY       0.036811
     42 H16         14.0490    -0.4050    23.2630 hc         1 VEY       0.036811
     43 H17         12.2680    -1.6340    26.3870 hc         1 VEY       0.036811
     44 H18         14.0020    -1.3870    26.1480 hc         1 VEY       0.036811
     45 H19         12.8450    -0.1810    25.5500 hc         1 VEY       0.036811
     46 H20         10.4580    -2.6370    25.3260 ha         1 VEY       0.119000
     47 H21          6.2650     0.4370    21.7690 h1         1 VEY       0.064700
     48 H22          7.7760     0.8310    23.8040 hn         1 VEY       0.313500
     49 H23          8.9710     3.5100    23.4290 h1         1 VEY       0.052700
     50 H24          8.6810     2.6630    24.9630 h1         1 VEY       0.052700
     51 H25         11.1320     2.8380    24.5110 hc         1 VEY       0.043367
     52 H26         10.6240     1.1350    24.4950 hc         1 VEY       0.043367
     53 H27         10.9280     1.9880    22.9640 hc         1 VEY       0.043367
     54 H28          6.8390     0.0020    16.0140 h4         1 VEY       0.016100
     55 H29          8.5390    -1.4520    19.5030 h4         1 VEY       0.020100
     56 H10          5.4710     1.6770    17.2730 ha         1 VEY       0.121000
@<TRIPOS>BOND
     1     1     2 1   
     2     1     5 1   
     3     1    19 1   
     4     2     3 1   
     5     2    13 2   
     6     3     4 1   
     7     3    28 1   
     8     3    29 1   
     9     4    30 1   
    10     4    31 1   
    11     4    32 1   
    12     5     6 ar  
    13     5    14 ar  
    14     6    18 ar  
    15     6    33 1   
    16     7     8 1   
    17     7    15 ar  
    18     7    18 ar  
    19     8     9 1   
    20     8    16 1   
    21     8    17 1   
    22     9    34 1   
    23     9    35 1   
    24     9    36 1   
    25    10    12 ar  
    26    10    19 1   
    27    10    27 ar  
    28    11    12 ar  
    29    11    26 ar  
    30    11    56 1   
    31    12    37 1   
    32    14    15 ar  
    33    14    38 1   
    34    15    39 1   
    35    16    40 1   
    36    16    41 1   
    37    16    42 1   
    38    17    43 1   
    39    17    44 1   
    40    17    45 1   
    41    18    46 1   
    42    19    20 1   
    43    19    47 1   
    44    20    21 2   
    45    20    22 1   
    46    22    23 1   
    47    22    48 1   
    48    23    24 1   
    49    23    49 1   
    50    23    50 1   
    51    24    51 1   
    52    24    52 1   
    53    24    53 1   
    54    25    26 ar  
    55    25    27 ar  
    56    26    54 1   
    57    27    55 1   
@<TRIPOS>SUBSTRUCTURE
     1 VEY         1 TEMP              0 ****  ****    0 ROOT
