@<TRIPOS>MOLECULE
VEY
   56    57     1     0     0
SMALL
abcg2


@<TRIPOS>ATOM
      1 N1           7.8940    -1.2950    21.6270 n          1 VEY      -0.249400
      2 C4           7.0400    -2.3410    21.4150 c          1 VEY       0.603100
      3 C5           7.5760    -3.7330    21.6720 c3         1 VEY      -0.149400
      4 C6           6.6890    -4.8200    21.0890 c3         1 VEY      -0.079100
      5 C7           9.1340    -1.4720    22.3070 ca         1 VEY      -0.069000
      6 C8           9.1510    -1.6960    23.6800 ca         1 VEY      -0.103000
      7 C10         11.5750    -1.7900    23.6720 ca         1 VEY      -0.056300
      8 C13         12.8740    -1.9440    24.4540 c3         1 VEY      -0.001700
      9 C15         12.9050    -3.3290    25.1150 c3         1 VEY      -0.083767
     10 C17          6.9800     0.2860    19.9570 ca         1 VEY      -0.129300
     11 C20          5.5560     1.2680    18.3040 ca         1 VEY      -0.166000
     12 C21          5.8420     1.0100    19.6350 ca         1 VEY      -0.052000
     13 O1           5.9030    -2.1440    21.0240 o          1 VEY      -0.583100
     14 C12         10.3350    -1.4140    21.6210 ca         1 VEY      -0.103000
     15 C11         11.5380    -1.5670    22.2980 ca         1 VEY      -0.105500
     16 C16         14.1080    -1.8020    23.5640 c3         1 VEY      -0.083767
     17 C14         12.9350    -0.8590    25.5370 c3         1 VEY      -0.083767
     18 C9          10.3520    -1.8610    24.3430 ca         1 VEY      -0.105500
     19 C3           7.3510     0.0480    21.3970 c3         1 VEY       0.097000
     20 C2           8.3770     1.1120    21.8250 c          1 VEY       0.591100
     21 O            9.2190     1.5310    21.0470 o          1 VEY      -0.581100
     22 N            8.2400     1.5430    23.0810 ns         1 VEY      -0.499900
     23 C1           9.1510     2.4900    23.6940 c3         1 VEY       0.104000
     24 C           10.4430     1.8540    24.1830 c3         1 VEY      -0.116100
     25 N2           7.5160     0.0860    17.6310 nb         1 VEY      -0.672000
     26 C19          6.4250     0.7850    17.3380 ca         1 VEY       0.342900
     27 C18          7.7820    -0.1500    18.9090 ca         1 VEY       0.378900
     28 H1           7.6730    -3.8710    22.7530 hc         1 VEY       0.062700
     29 H2           8.5910    -3.8180    21.2800 hc         1 VEY       0.062700
     30 H3           7.1080    -5.7990    21.3190 hc         1 VEY       0.042367
     31 H4           5.6810    -4.7860    21.4990 hc         1 VEY       0.042367
     32 H5           6.6140    -4.7380    20.0050 hc         1 VEY       0.042367
     33 H6           8.2200    -1.7420    24.2320 ha         1 VEY       0.124500
     34 H7          12.0760    -3.4700    25.8110 hc         1 VEY       0.036811
     35 H8          12.8540    -4.1240    24.3690 hc         1 VEY       0.036811
     36 H9          13.8310    -3.4570    25.6800 hc         1 VEY       0.036811
     37 H11          5.1820     1.3650    20.4170 ha         1 VEY       0.114000
     38 H12         10.3390    -1.2500    20.5510 ha         1 VEY       0.124500
     39 H13         12.4520    -1.5080    21.7250 ha         1 VEY       0.119000
     40 H14         15.0100    -1.8930    24.1720 hc         1 VEY       0.036811
     41 H15         14.1540    -2.5720    22.7920 hc         1 VEY       0.036811
     42 H16         14.1470    -0.8270    23.0740 hc         1 VEY       0.036811
     43 H17         12.0930    -0.9220    26.2270 hc         1 VEY       0.036811
     44 H18         13.8510    -0.9590    26.1230 hc         1 VEY       0.036811
     45 H19         12.9280     0.1390    25.0940 hc         1 VEY       0.036811
     46 H20         10.3280    -2.0370    25.4120 ha         1 VEY       0.119000
     47 H21          6.4490     0.1680    22.0060 h1         1 VEY       0.064700
     48 H22          7.5460     1.1110    23.6700 hn         1 VEY       0.313500
     49 H23          9.3650     3.2810    22.9740 h1         1 VEY       0.052700
     50 H24          8.6190     2.9540    24.5230 h1         1 VEY       0.052700
     51 H25         11.0880     2.6140    24.6240 hc         1 VEY       0.043367
     52 H26         10.2490     1.0940    24.9390 hc         1 VEY       0.043367
     53 H27         10.9850     1.3790    23.3670 hc         1 VEY       0.043367
     54 H28          6.2310     0.9660    16.2870 h4         1 VEY       0.016100
     55 H29          8.6740    -0.7320    19.1100 h4         1 VEY       0.020100
     56 H10          4.6750     1.8250    18.0180 ha         1 VEY       0.121000
@<TRIPOS>BOND
     1     1     2 1   
     2     1     5 1   
     3     1    19 1   
     4     2     3 1   
     5     2    13 2   
     6     3     4 1   
     7     3    28 1   
     8     3    29 1   
     9     4    30 1   
    10     4    31 1   
    11     4    32 1   
    12     5     6 ar  
    13     5    14 ar  
    14     6    18 ar  
    15     6    33 1   
    16     7     8 1   
    17     7    15 ar  
    18     7    18 ar  
    19     8     9 1   
    20     8    16 1   
    21     8    17 1   
    22     9    34 1   
    23     9    35 1   
    24     9    36 1   
    25    10    12 ar  
    26    10    19 1   
    27    10    27 ar  
    28    11    12 ar  
    29    11    26 ar  
    30    11    56 1   
    31    12    37 1   
    32    14    15 ar  
    33    14    38 1   
    34    15    39 1   
    35    16    40 1   
    36    16    41 1   
    37    16    42 1   
    38    17    43 1   
    39    17    44 1   
    40    17    45 1   
    41    18    46 1   
    42    19    20 1   
    43    19    47 1   
    44    20    21 2   
    45    20    22 1   
    46    22    23 1   
    47    22    48 1   
    48    23    24 1   
    49    23    49 1   
    50    23    50 1   
    51    24    51 1   
    52    24    52 1   
    53    24    53 1   
    54    25    26 ar  
    55    25    27 ar  
    56    26    54 1   
    57    27    55 1   
@<TRIPOS>SUBSTRUCTURE
     1 VEY         1 TEMP              0 ****  ****    0 ROOT
