@<TRIPOS>MOLECULE
VF0
   67    66     1     0     0
SMALL
abcg2


@<TRIPOS>ATOM
      1 C10        162.2410   147.1930   136.8110 c2         1 VF0      -0.217200
      2 C13        165.6770   145.4650   136.3370 c3         1 VF0      -0.070400
      3 C15        166.9860   144.9670   134.1530 c3         1 VF0      -0.079400
      4 C17        166.8230   146.1580   131.8950 c3         1 VF0      -0.199400
      5 C21        168.3960   146.4910   129.5730 c3         1 VF0       0.133600
      6 C22        169.1490   147.2490   128.4920 c3         1 VF0       0.136300
      7 C24        168.6550   146.8120   127.1220 c3         1 VF0       0.239600
      8 C05        158.8190   150.1170   139.5090 c3         1 VF0      -0.088100
      9 C06        159.5370   149.1470   138.5810 c3         1 VF0      -0.077400
     10 C07        159.6870   149.6910   137.1670 c3         1 VF0      -0.070400
     11 C08        160.3340   148.7040   136.1920 c3         1 VF0      -0.040200
     12 C09        161.7640   148.3970   136.5090 c2         1 VF0      -0.217200
     13 C11        163.6770   146.8680   137.0780 c3         1 VF0      -0.040200
     14 C12        164.2380   145.8860   136.0490 c3         1 VF0      -0.075400
     15 C14        166.2310   144.4180   135.3610 c3         1 VF0      -0.066400
     16 C16        166.1840   145.9050   133.2550 c3         1 VF0      -0.053400
     17 C18        168.1210   146.9220   131.9420 c          1 VF0       0.641100
     18 C30        166.2560   149.9770   126.6830 c3         1 VF0       0.252600
     19 C31        165.9880   150.5110   128.0780 c3         1 VF0       0.012500
     20 C33        166.0980   149.3980   129.1540 c          1 VF0       0.731000
     21 N32        164.6250   151.0440   128.0840 n8         1 VF0      -0.980200
     22 O19        168.5400   147.4810   132.9240 o          1 VF0      -0.496000
     23 O20        168.8570   146.9870   130.8330 os         1 VF0      -0.452100
     24 O23        170.5390   147.0230   128.5550 oh         1 VF0      -0.666000
     25 O25        169.1560   147.6550   126.1050 os         1 VF0      -0.581400
     26 O27        167.0040   147.9300   124.6940 o          1 VF0      -0.838500
     27 O28        169.0360   149.5510   124.4850 o          1 VF0      -0.838500
     28 O29        167.5960   149.5250   126.6140 os         1 VF0      -0.621400
     29 O34        165.4710   148.3420   128.9320 o          1 VF0      -0.748500
     30 O35        166.7810   149.6630   130.1630 o          1 VF0      -0.748500
     31 P26        168.1450   148.6810   125.3110 p5         1 VF0       1.410800
     32 H101       161.5510   146.3510   136.8390 ha         1 VF0       0.155000
     33 H132       165.7100   145.0600   137.3530 hc         1 VF0       0.033200
     34 H131       166.3270   146.3470   136.3480 hc         1 VF0       0.033200
     35 H152       167.3310   144.1170   133.5550 hc         1 VF0       0.041700
     36 H151       167.8870   145.4770   134.5010 hc         1 VF0       0.041700
     37 H171       166.1340   146.7280   131.2610 hc         1 VF0       0.086700
     38 H172       166.9750   145.2060   131.3760 hc         1 VF0       0.086700
     39 H212       167.3280   146.6710   129.4500 h1         1 VF0       0.054200
     40 H211       168.5880   145.4160   129.5090 h1         1 VF0       0.054200
     41 H221       168.9140   148.3130   128.6170 h1         1 VF0       0.103700
     42 H241       167.5610   146.7870   127.1290 h1         1 VF0       0.026700
     43 H242       168.9940   145.7890   126.9240 h1         1 VF0       0.026700
     44 H051       158.7210   149.7100   140.5160 hc         1 VF0       0.026033
     45 H052       159.3590   151.0620   139.5850 hc         1 VF0       0.026033
     46 H1         157.8150   150.3420   139.1450 hc         1 VF0       0.026033
     47 H062       160.5220   148.9080   138.9920 hc         1 VF0       0.039200
     48 H061       158.9880   148.2000   138.5440 hc         1 VF0       0.039200
     49 H071       158.7000   149.9660   136.7820 hc         1 VF0       0.035700
     50 H072       160.2700   150.6180   137.1900 hc         1 VF0       0.035700
     51 H081       160.2770   149.1280   135.1840 hc         1 VF0       0.046200
     52 H082       159.7510   147.7780   136.1720 hc         1 VF0       0.046200
     53 H091       162.4510   149.2420   136.4810 ha         1 VF0       0.173000
     54 H112       163.7760   146.4250   138.0760 hc         1 VF0       0.039200
     55 H111       164.2750   147.7850   137.0840 hc         1 VF0       0.039200
     56 H122       164.1600   146.3310   135.0540 hc         1 VF0       0.045200
     57 H121       163.6070   144.9910   136.0300 hc         1 VF0       0.045200
     58 H141       165.4100   143.7790   135.0180 hc         1 VF0       0.023700
     59 H142       166.9150   143.7560   135.8990 hc         1 VF0       0.023700
     60 H161       165.9980   146.8550   133.7620 hc         1 VF0       0.041700
     61 H162       165.2000   145.4660   133.0650 hc         1 VF0       0.041700
     62 H301       165.5480   149.1740   126.4680 h1         1 VF0       0.011700
     63 H302       166.0830   150.7740   125.9460 h1         1 VF0       0.011700
     64 H311       166.7390   151.2830   128.3050 h1         1 VF0       0.013700
     65 H2         164.3970   151.3820   129.0110 hn         1 VF0       0.353500
     66 H321       164.5870   151.8610   127.4870 hn         1 VF0       0.353500
     67 H231       170.8850   147.4570   129.3410 ho         1 VF0       0.431000
@<TRIPOS>BOND
     1     1    12 2   
     2     1    13 1   
     3     1    32 1   
     4     2    14 1   
     5     2    15 1   
     6     2    33 1   
     7     2    34 1   
     8     3    15 1   
     9     3    16 1   
    10     3    35 1   
    11     3    36 1   
    12     4    16 1   
    13     4    17 1   
    14     4    37 1   
    15     4    38 1   
    16     5     6 1   
    17     5    23 1   
    18     5    39 1   
    19     5    40 1   
    20     6     7 1   
    21     6    24 1   
    22     6    41 1   
    23     7    25 1   
    24     7    42 1   
    25     7    43 1   
    26     8     9 1   
    27     8    44 1   
    28     8    45 1   
    29     8    46 1   
    30     9    10 1   
    31     9    47 1   
    32     9    48 1   
    33    10    11 1   
    34    10    49 1   
    35    10    50 1   
    36    11    12 1   
    37    11    51 1   
    38    11    52 1   
    39    12    53 1   
    40    13    14 1   
    41    13    54 1   
    42    13    55 1   
    43    14    56 1   
    44    14    57 1   
    45    15    58 1   
    46    15    59 1   
    47    16    60 1   
    48    16    61 1   
    49    17    22 2   
    50    17    23 1   
    51    18    19 1   
    52    18    28 1   
    53    18    62 1   
    54    18    63 1   
    55    19    20 1   
    56    19    21 1   
    57    19    64 1   
    58    20    29 1   
    59    20    30 1   
    60    21    65 1   
    61    21    66 1   
    62    24    67 1   
    63    25    31 1   
    64    26    31 1   
    65    27    31 1   
    66    28    31 1   
@<TRIPOS>SUBSTRUCTURE
     1 VF0         1 TEMP              0 ****  ****    0 ROOT
