@<TRIPOS>MOLECULE
VF0
   67    66     1     0     0
SMALL
No Charge or Current Charge


@<TRIPOS>ATOM
      1 C10        162.0170   146.9260   137.0720 c2         1 VF0      -0.217200
      2 C13        165.3630   145.0240   136.3100 c3         1 VF0      -0.070400
      3 C15        166.6150   144.7840   134.0120 c3         1 VF0      -0.079400
      4 C17        166.4850   146.2910   131.9090 c3         1 VF0      -0.199400
      5 C21        168.1320   147.0240   129.6970 c3         1 VF0       0.133600
      6 C22        169.0910   147.6830   128.6720 c3         1 VF0       0.136300
      7 C24        169.0420   146.9610   127.2920 c3         1 VF0       0.239600
      8 C05        159.1880   149.9130   140.2910 c3         1 VF0      -0.088100
      9 C06        159.6940   148.9600   139.1910 c3         1 VF0      -0.077400
     10 C07        159.7450   149.6220   137.7940 c3         1 VF0      -0.070400
     11 C08        160.2180   148.6710   136.6720 c3         1 VF0      -0.040200
     12 C09        161.6450   148.1980   136.8620 c2         1 VF0      -0.217200
     13 C11        163.4420   146.4530   137.2680 c3         1 VF0      -0.040200
     14 C12        163.9080   145.5250   136.1280 c3         1 VF0      -0.075400
     15 C14        165.8730   144.0900   135.1830 c3         1 VF0      -0.066400
     16 C16        165.7710   145.7860   133.1890 c3         1 VF0      -0.053400
     17 C18        167.7100   147.2140   132.1300 c          1 VF0       0.641100
     18 C30        166.7770   149.4300   126.4490 c3         1 VF0       0.252600
     19 C31        166.1600   150.8060   126.8310 c3         1 VF0       0.012500
     20 C33        166.9750   151.4470   128.0240 c          1 VF0       0.731000
     21 N32        164.6520   150.7310   127.0120 n8         1 VF0      -0.980200
     22 O19        167.9650   147.7170   133.2140 o          1 VF0      -0.496000
     23 O20        168.4320   147.5650   131.0070 os         1 VF0      -0.452100
     24 O23        170.4320   147.6830   129.2140 oh         1 VF0      -0.666000
     25 O25        169.6860   147.7790   126.3020 os         1 VF0      -0.581400
     26 O27        167.8990   147.5270   124.4660 o          1 VF0      -0.838500
     27 O28        169.7800   149.0790   124.1150 o          1 VF0      -0.838500
     28 O29        168.1000   149.6430   125.9400 os         1 VF0      -0.621400
     29 O34        167.0870   150.8210   129.0720 o          1 VF0      -0.748500
     30 O35        167.3600   152.6050   127.9040 o          1 VF0      -0.748500
     31 P26        168.8480   148.4780   125.1150 p5         1 VF0       1.410800
     32 H101       161.2690   146.1320   137.1230 ha         1 VF0       0.155000
     33 H132       165.4130   144.4740   137.2590 hc         1 VF0       0.033200
     34 H131       166.0420   145.8800   136.4150 hc         1 VF0       0.033200
     35 H152       166.9850   144.0020   133.3370 hc         1 VF0       0.041700
     36 H151       167.5020   145.2930   134.4080 hc         1 VF0       0.041700
     37 H171       165.7830   146.8420   131.2740 hc         1 VF0       0.086700
     38 H172       166.7650   145.4510   131.2650 hc         1 VF0       0.086700
     39 H212       167.0970   147.2400   129.4010 h1         1 VF0       0.054200
     40 H211       168.2830   145.9370   129.6810 h1         1 VF0       0.054200
     41 H221       168.7490   148.7160   128.5270 h1         1 VF0       0.103700
     42 H241       167.9940   146.7680   127.0250 h1         1 VF0       0.026700
     43 H242       169.5440   145.9880   127.3690 h1         1 VF0       0.026700
     44 H051       159.1700   149.4010   141.2610 hc         1 VF0       0.026033
     45 H052       159.8430   150.7880   140.3770 hc         1 VF0       0.026033
     46 H1         158.1730   150.2600   140.0670 hc         1 VF0       0.026033
     47 H062       160.6940   148.6030   139.4660 hc         1 VF0       0.039200
     48 H061       159.0400   148.0800   139.1520 hc         1 VF0       0.039200
     49 H071       158.7450   149.9940   137.5390 hc         1 VF0       0.035700
     50 H072       160.4080   150.4960   137.8280 hc         1 VF0       0.035700
     51 H081       160.1310   149.1920   135.7110 hc         1 VF0       0.046200
     52 H082       159.5320   147.8160   136.6190 hc         1 VF0       0.046200
     53 H091       162.3930   148.9930   136.8140 ha         1 VF0       0.173000
     54 H112       163.5260   145.9220   138.2240 hc         1 VF0       0.039200
     55 H111       164.1230   147.3110   137.3280 hc         1 VF0       0.039200
     56 H122       163.8050   146.0590   135.1780 hc         1 VF0       0.045200
     57 H121       163.2370   144.6590   136.0760 hc         1 VF0       0.045200
     58 H141       165.0420   143.4920   134.7910 hc         1 VF0       0.023700
     59 H142       166.5730   143.3740   135.6320 hc         1 VF0       0.023700
     60 H161       165.5070   146.6500   133.8100 hc         1 VF0       0.041700
     61 H162       164.8320   145.3010   132.8960 hc         1 VF0       0.041700
     62 H301       166.7850   148.7670   127.3220 h1         1 VF0       0.011700
     63 H302       166.1420   148.9680   125.6810 h1         1 VF0       0.011700
     64 H311       166.3090   151.4670   125.9660 h1         1 VF0       0.013700
     65 H2         164.2850   151.6770   127.1670 hn         1 VF0       0.353500
     66 H321       164.2160   150.4340   126.1310 hn         1 VF0       0.353500
     67 H231       170.3170   147.8300   130.1810 ho         1 VF0       0.431000
@<TRIPOS>BOND
     1     1    12 2   
     2     1    13 1   
     3     1    32 1   
     4     2    14 1   
     5     2    15 1   
     6     2    33 1   
     7     2    34 1   
     8     3    15 1   
     9     3    16 1   
    10     3    35 1   
    11     3    36 1   
    12     4    16 1   
    13     4    17 1   
    14     4    37 1   
    15     4    38 1   
    16     5     6 1   
    17     5    23 1   
    18     5    39 1   
    19     5    40 1   
    20     6     7 1   
    21     6    24 1   
    22     6    41 1   
    23     7    25 1   
    24     7    42 1   
    25     7    43 1   
    26     8     9 1   
    27     8    44 1   
    28     8    45 1   
    29     8    46 1   
    30     9    10 1   
    31     9    47 1   
    32     9    48 1   
    33    10    11 1   
    34    10    49 1   
    35    10    50 1   
    36    11    12 1   
    37    11    51 1   
    38    11    52 1   
    39    12    53 1   
    40    13    14 1   
    41    13    54 1   
    42    13    55 1   
    43    14    56 1   
    44    14    57 1   
    45    15    58 1   
    46    15    59 1   
    47    16    60 1   
    48    16    61 1   
    49    17    22 2   
    50    17    23 1   
    51    18    19 1   
    52    18    28 1   
    53    18    62 1   
    54    18    63 1   
    55    19    20 1   
    56    19    21 1   
    57    19    64 1   
    58    20    29 1   
    59    20    30 1   
    60    21    65 1   
    61    21    66 1   
    62    24    67 1   
    63    25    31 1   
    64    26    31 1   
    65    27    31 1   
    66    28    31 1   
@<TRIPOS>SUBSTRUCTURE
     1 VF0         1 TEMP              0 ****  ****    0 ROOT
