@<TRIPOS>MOLECULE
VF1
   64    70     1     0     0
SMALL
No Charge or Current Charge


@<TRIPOS>ATOM
      1 CAP          2.3030    15.6400   -57.8160 c6         1 VF1      -0.058400
      2 CAO          1.8950    15.7390   -56.3290 c6         1 VF1       0.167800
      3 NBB          0.9730    16.8850   -56.1020 n3         1 VF1      -0.720600
      4 CAB          0.6950    17.1300   -54.6690 c3         1 VF1       0.159100
      5 CAZ         -0.2480    16.8210   -56.9760 c6         1 VF1       0.203500
      6 CAQ         -1.1310    15.5580   -56.6970 c6         1 VF1      -0.056100
      7 CAW         -0.7300    14.2940   -57.4810 ca         1 VF1      -0.104300
      8 CAM         -1.4040    13.0980   -57.1750 ca         1 VF1      -0.074000
      9 CAL         -1.0510    11.8960   -57.8060 ca         1 VF1      -0.204000
     10 CAU         -0.0020    11.8820   -58.7310 ca         1 VF1       0.135100
     11 OAD          0.3730    10.7110   -59.3180 oh         1 VF1      -0.538100
     12 CAN          0.6760    13.0670   -59.0480 ca         1 VF1      -0.148000
     13 CAX          0.2990    14.3020   -58.4660 ca         1 VF1      -0.015300
     14 CBF          1.0720    15.6170   -58.7930 c6         1 VF1       0.020300
     15 CBA          1.4860    15.7360   -60.3470 c5         1 VF1       0.177500
     16 NAS          2.8770    16.2890   -60.5240 n7         1 VF1      -0.888400
     17 CBE          0.5820    16.7840   -61.1210 c5         1 VF1       0.178200
     18 OAT          0.7240    16.7360   -62.5750 os         1 VF1      -0.451000
     19 CAA          0.3760    15.5150   -63.2560 c3         1 VF1       0.146900
     20 CAF         -0.8840    16.6840   -60.7220 c2         1 VF1      -0.238200
     21 CAE         -1.0890    16.7440   -59.4020 c2         1 VF1      -0.199200
     22 CBD          0.1440    16.8510   -58.4880 c6         1 VF1      -0.009800
     23 CAR          0.8600    18.1720   -58.9530 c6         1 VF1      -0.047400
     24 CBC          1.2030    18.0990   -60.5090 c5         1 VF1      -0.035000
     25 CAC          0.6580    19.3830   -61.2010 c3         1 VF1      -0.073100
     26 CAY          2.7100    17.7400   -60.8600 c5         1 VF1       0.232800
     27 CAV          3.7150    18.7080   -60.1870 ca         1 VF1      -0.071300
     28 CAJ          3.7810    20.0610   -60.5930 ca         1 VF1      -0.099500
     29 CAH          4.6950    20.9550   -60.0110 ca         1 VF1      -0.115500
     30 CAG          5.5880    20.5080   -59.0270 ca         1 VF1      -0.111000
     31 CAI          5.5800    19.1580   -58.6490 ca         1 VF1      -0.115500
     32 CAK          4.6640    18.2660   -59.2330 ca         1 VF1      -0.099500
     33 H1           2.9320    14.7530   -57.9720 hc         1 VF1       0.061200
     34 H2           2.9390    16.5040   -58.0050 hc         1 VF1       0.061200
     35 H3           1.4370    14.7940   -56.0020 h1         1 VF1       0.032700
     36 H4           2.8080    15.8660   -55.7280 h1         1 VF1       0.032700
     37 H6           1.6260    17.3540   -54.1330 h1         1 VF1       0.028700
     38 H7           0.0210    17.9880   -54.5450 h1         1 VF1       0.028700
     39 H8           0.2350    16.2550   -54.1920 h1         1 VF1       0.028700
     40 H9          -0.8670    17.7080   -56.7740 h1         1 VF1       0.060700
     41 H10         -2.1750    15.7950   -56.9370 hc         1 VF1       0.047700
     42 H11         -1.1500    15.3280   -55.6250 hc         1 VF1       0.047700
     43 H12         -2.1980    13.1030   -56.4320 ha         1 VF1       0.108000
     44 H13         -1.5800    10.9800   -57.5530 ha         1 VF1       0.112000
     45 H14         -0.2040     9.9960   -58.9740 ho         1 VF1       0.463000
     46 H15          1.5140    13.0050   -59.7350 ha         1 VF1       0.124000
     47 H16          1.4170    14.7510   -60.8170 h1         1 VF1       0.058700
     48 H17          3.3140    15.8390   -61.3360 hn         1 VF1       0.427000
     49 H19          0.4610    15.6520   -64.3420 h1         1 VF1       0.030367
     50 H20          1.0460    14.6960   -62.9690 h1         1 VF1       0.030367
     51 H21         -0.6560    15.2160   -63.0340 h1         1 VF1       0.030367
     52 H22         -1.7000    16.6240   -61.4420 ha         1 VF1       0.192000
     53 H24         -2.0930    16.7350   -58.9750 ha         1 VF1       0.185000
     54 H26          1.7590    18.3780   -58.3590 hc         1 VF1       0.062200
     55 H27          0.1870    19.0160   -58.7500 hc         1 VF1       0.062200
     56 H28          0.9970    20.2930   -60.6930 hc         1 VF1       0.040367
     57 H29          0.9740    19.4410   -62.2500 hc         1 VF1       0.040367
     58 H30         -0.4380    19.4040   -61.1880 hc         1 VF1       0.040367
     59 H31          2.8520    17.8500   -61.9450 h1         1 VF1       0.049700
     60 H32          3.1330    20.4280   -61.3840 ha         1 VF1       0.118000
     61 H33          4.7190    21.9940   -60.3320 ha         1 VF1       0.109500
     62 H34          6.2990    21.1980   -58.5780 ha         1 VF1       0.109000
     63 H35          6.2910    18.7970   -57.9090 ha         1 VF1       0.109500
     64 H36          4.7170    17.2200   -58.9500 ha         1 VF1       0.118000
@<TRIPOS>BOND
     1     1     2 1   
     2     1    14 1   
     3     1    33 1   
     4     1    34 1   
     5     2     3 1   
     6     2    35 1   
     7     2    36 1   
     8     3     4 1   
     9     3     5 1   
    10     4    37 1   
    11     4    38 1   
    12     4    39 1   
    13     5     6 1   
    14     5    22 1   
    15     5    40 1   
    16     6     7 1   
    17     6    41 1   
    18     6    42 1   
    19     7     8 ar  
    20     7    13 ar  
    21     8     9 ar  
    22     8    43 1   
    23     9    10 ar  
    24     9    44 1   
    25    10    11 1   
    26    10    12 ar  
    27    11    45 1   
    28    12    13 ar  
    29    12    46 1   
    30    13    14 1   
    31    14    15 1   
    32    14    22 1   
    33    15    16 1   
    34    15    17 1   
    35    15    47 1   
    36    16    26 1   
    37    16    48 1   
    38    17    18 1   
    39    17    20 1   
    40    17    24 1   
    41    18    19 1   
    42    19    49 1   
    43    19    50 1   
    44    19    51 1   
    45    20    21 2   
    46    20    52 1   
    47    21    22 1   
    48    21    53 1   
    49    22    23 1   
    50    23    24 1   
    51    23    54 1   
    52    23    55 1   
    53    24    25 1   
    54    24    26 1   
    55    25    56 1   
    56    25    57 1   
    57    25    58 1   
    58    26    27 1   
    59    26    59 1   
    60    27    28 ar  
    61    27    32 ar  
    62    28    29 ar  
    63    28    60 1   
    64    29    30 ar  
    65    29    61 1   
    66    30    31 ar  
    67    30    62 1   
    68    31    32 ar  
    69    31    63 1   
    70    32    64 1   
@<TRIPOS>SUBSTRUCTURE
     1 VF1         1 TEMP              0 ****  ****    0 ROOT
