@<TRIPOS>MOLECULE
VF1
   64    70     1     0     0
SMALL
abcg2


@<TRIPOS>ATOM
      1 CAP          2.2840    15.4830   -57.8000 c6         1 VF1      -0.058400
      2 CAO          1.8910    15.6290   -56.3410 c6         1 VF1       0.167800
      3 NBB          1.0860    16.8210   -56.1630 n3         1 VF1      -0.720600
      4 CAB          0.8460    17.1190   -54.7700 c3         1 VF1       0.159100
      5 CAZ         -0.1300    16.7780   -56.9630 c6         1 VF1       0.203500
      6 CAQ         -1.0290    15.5580   -56.6880 c6         1 VF1      -0.056100
      7 CAW         -0.7210    14.3330   -57.5190 ca         1 VF1      -0.104300
      8 CAM         -1.4420    13.1690   -57.2710 ca         1 VF1      -0.074000
      9 CAL         -1.2230    11.9970   -57.9750 ca         1 VF1      -0.204000
     10 CAU         -0.2410    11.9770   -58.9580 ca         1 VF1       0.135100
     11 OAD          0.0480    10.8750   -59.6860 oh         1 VF1      -0.538100
     12 CAN          0.4880    13.1320   -59.2200 ca         1 VF1      -0.148000
     13 CAX          0.2520    14.3170   -58.5300 ca         1 VF1      -0.015300
     14 CBF          1.0930    15.5630   -58.7710 c6         1 VF1       0.020300
     15 CBA          1.5800    15.7410   -60.2450 c5         1 VF1       0.177500
     16 NAS          2.8770    16.4080   -60.3510 n7         1 VF1      -0.888400
     17 CBE          0.6130    16.7010   -60.9930 c5         1 VF1       0.178200
     18 OAT          0.7820    16.6640   -62.3880 os         1 VF1      -0.451000
     19 CAA          0.5170    15.4320   -63.0140 c3         1 VF1       0.146900
     20 CAF         -0.8190    16.6010   -60.5930 c2         1 VF1      -0.238200
     21 CAE         -1.0370    16.6950   -59.2890 c2         1 VF1      -0.199200
     22 CBD          0.2090    16.8000   -58.4500 c6         1 VF1      -0.009800
     23 CAR          0.9360    18.0740   -58.9300 c6         1 VF1      -0.047400
     24 CBC          1.2080    18.0390   -60.4590 c5         1 VF1      -0.035000
     25 CAC          0.6420    19.2740   -61.1370 c3         1 VF1      -0.073100
     26 CAY          2.6980    17.7870   -60.7820 c5         1 VF1       0.232800
     27 CAV          3.6760    18.7720   -60.1900 ca         1 VF1      -0.071300
     28 CAJ          3.8600    20.0000   -60.8270 ca         1 VF1      -0.099500
     29 CAH          4.7290    20.9540   -60.3170 ca         1 VF1      -0.115500
     30 CAG          5.4520    20.6900   -59.1600 ca         1 VF1      -0.111000
     31 CAI          5.2980    19.4640   -58.5300 ca         1 VF1      -0.115500
     32 CAK          4.4230    18.5150   -59.0440 ca         1 VF1      -0.099500
     33 H1           2.8150    14.5390   -57.9490 hc         1 VF1       0.061200
     34 H2           2.9920    16.2700   -58.0370 hc         1 VF1       0.061200
     35 H3           1.3870    14.7240   -55.9630 h1         1 VF1       0.032700
     36 H4           2.8020    15.7330   -55.7450 h1         1 VF1       0.032700
     37 H6           1.7990    17.2650   -54.2580 h1         1 VF1       0.028700
     38 H7           0.2730    18.0430   -54.6790 h1         1 VF1       0.028700
     39 H8           0.3020    16.3330   -54.2240 h1         1 VF1       0.028700
     40 H9          -0.6990    17.6820   -56.7200 h1         1 VF1       0.060700
     41 H10         -2.0730    15.8400   -56.8490 hc         1 VF1       0.047700
     42 H11         -0.9760    15.2940   -55.6280 hc         1 VF1       0.047700
     43 H12         -2.2010    13.1770   -56.4960 ha         1 VF1       0.108000
     44 H13         -1.8060    11.1100   -57.7540 ha         1 VF1       0.112000
     45 H14         -0.5150    10.1400   -59.4170 ho         1 VF1       0.463000
     46 H15          1.2540    13.0750   -59.9830 ha         1 VF1       0.124000
     47 H16          1.6450    14.7720   -60.7360 h1         1 VF1       0.058700
     48 H17          3.5070    15.9030   -60.9560 hn         1 VF1       0.427000
     49 H19          0.4710    15.6180   -64.0870 h1         1 VF1       0.030367
     50 H20          1.3020    14.6910   -62.8340 h1         1 VF1       0.030367
     51 H21         -0.4380    14.9950   -62.7040 h1         1 VF1       0.030367
     52 H22         -1.6050    16.5410   -61.3360 ha         1 VF1       0.192000
     53 H24         -2.0300    16.7170   -58.8560 ha         1 VF1       0.185000
     54 H26          1.8640    18.2120   -58.3760 hc         1 VF1       0.062200
     55 H27          0.3090    18.9360   -58.6870 hc         1 VF1       0.062200
     56 H28          1.0620    20.1790   -60.6940 hc         1 VF1       0.040367
     57 H29          0.8540    19.2990   -62.2060 hc         1 VF1       0.040367
     58 H30         -0.4390    19.3220   -61.0000 hc         1 VF1       0.040367
     59 H31          2.7990    17.8820   -61.8710 h1         1 VF1       0.049700
     60 H32          3.3220    20.2130   -61.7440 ha         1 VF1       0.118000
     61 H33          4.8500    21.8990   -60.8300 ha         1 VF1       0.109500
     62 H34          6.1350    21.4290   -58.7620 ha         1 VF1       0.109000
     63 H35          5.8660    19.2380   -57.6360 ha         1 VF1       0.109500
     64 H36          4.3320    17.5560   -58.5520 ha         1 VF1       0.118000
@<TRIPOS>BOND
     1     1     2 1   
     2     1    14 1   
     3     1    33 1   
     4     1    34 1   
     5     2     3 1   
     6     2    35 1   
     7     2    36 1   
     8     3     4 1   
     9     3     5 1   
    10     4    37 1   
    11     4    38 1   
    12     4    39 1   
    13     5     6 1   
    14     5    22 1   
    15     5    40 1   
    16     6     7 1   
    17     6    41 1   
    18     6    42 1   
    19     7     8 ar  
    20     7    13 ar  
    21     8     9 ar  
    22     8    43 1   
    23     9    10 ar  
    24     9    44 1   
    25    10    11 1   
    26    10    12 ar  
    27    11    45 1   
    28    12    13 ar  
    29    12    46 1   
    30    13    14 1   
    31    14    15 1   
    32    14    22 1   
    33    15    16 1   
    34    15    17 1   
    35    15    47 1   
    36    16    26 1   
    37    16    48 1   
    38    17    18 1   
    39    17    20 1   
    40    17    24 1   
    41    18    19 1   
    42    19    49 1   
    43    19    50 1   
    44    19    51 1   
    45    20    21 2   
    46    20    52 1   
    47    21    22 1   
    48    21    53 1   
    49    22    23 1   
    50    23    24 1   
    51    23    54 1   
    52    23    55 1   
    53    24    25 1   
    54    24    26 1   
    55    25    56 1   
    56    25    57 1   
    57    25    58 1   
    58    26    27 1   
    59    26    59 1   
    60    27    28 ar  
    61    27    32 ar  
    62    28    29 ar  
    63    28    60 1   
    64    29    30 ar  
    65    29    61 1   
    66    30    31 ar  
    67    30    62 1   
    68    31    32 ar  
    69    31    63 1   
    70    32    64 1   
@<TRIPOS>SUBSTRUCTURE
     1 VF1         1 TEMP              0 ****  ****    0 ROOT
