@<TRIPOS>MOLECULE
VF2
   55    56     1     0     0
SMALL
bcc


@<TRIPOS>ATOM
      1 C10         16.1830   -26.5990     7.5280 ca         1 VF2       0.129200
      2 C15         17.5980   -22.2570     9.5640 c3         1 VF2      -0.098400
      3 C17         17.9090   -19.7800    10.0030 c3         1 VF2      -0.075400
      4 C20         16.9830   -16.8160    10.2070 c3         1 VF2       0.050000
      5 C22         16.0620   -25.1070     9.4210 ca         1 VF2      -0.019300
      6 C24         16.3480   -29.8540     3.8490 ca         1 VF2      -0.017000
      7 C01         12.7200   -32.8140     2.5700 c3         1 VF2       0.203600
      8 C03         14.9060   -32.9150     1.3660 c3         1 VF2       0.203600
      9 C04         14.5490   -31.3310     3.1690 ca         1 VF2       0.261600
     10 C05         13.7550   -30.7430     4.1860 ca         1 VF2      -0.232000
     11 C06         14.2520   -29.7510     4.9950 ca         1 VF2      -0.017000
     12 C07         15.5660   -29.2730     4.8580 ca         1 VF2      -0.207800
     13 C08         16.1410   -28.2490     5.6880 ce         1 VF2       0.089800
     14 C09         15.5460   -27.5970     6.7130 cf         1 VF2      -0.256200
     15 C11         17.4950   -26.1270     7.3370 ca         1 VF2      -0.180500
     16 C12         18.0250   -25.1910     8.1790 ca         1 VF2      -0.019300
     17 N13         17.3230   -24.6940     9.2130 na         1 VF2      -0.001100
     18 C14         17.9100   -23.6560    10.0720 c3         1 VF2       0.007300
     19 C16         18.1770   -21.1980    10.4930 c3         1 VF2      -0.075400
     20 C18         18.4660   -18.7240    10.9520 c3         1 VF2      -0.076400
     21 C19         18.4040   -17.2940    10.4150 c3         1 VF2      -0.085400
     22 C23         15.4790   -26.0390     8.6100 ca         1 VF2      -0.180500
     23 C25         15.8690   -30.8490     3.0270 ca         1 VF2      -0.232000
     24 CL1         16.9630   -15.1020     9.6350 cl         1 VF2      -0.200400
     25 H1          18.0070   -22.1360     8.5570 hc         1 VF2       0.059200
     26 H2          16.5150   -22.1310     9.4860 hc         1 VF2       0.059200
     27 H3          18.3530   -19.6490     9.0100 hc         1 VF2       0.044700
     28 H4          16.8300   -19.6460     9.8740 hc         1 VF2       0.044700
     29 H5          16.4550   -17.3940     9.4520 h1         1 VF2       0.061200
     30 H6          16.4100   -16.8440    11.1320 h1         1 VF2       0.061200
     31 H7          15.5420   -24.6710    10.2630 h4         1 VF2       0.189000
     32 H8          17.3670   -29.5130     3.7100 ha         1 VF2       0.130500
     33 H9          12.5880   -33.2580     3.5600 h1         1 VF2       0.051200
     34 H10         11.9700   -32.0300     2.4460 h1         1 VF2       0.051200
     35 H11         12.5160   -33.5830     1.8310 h1         1 VF2       0.051200
     36 H12         15.2670   -32.1780     0.6450 h1         1 VF2       0.051200
     37 H13         15.7750   -33.4160     1.8030 h1         1 VF2       0.051200
     38 H14         14.3350   -33.6580     0.8180 h1         1 VF2       0.051200
     39 H15         12.7370   -31.0700     4.3440 ha         1 VF2       0.146000
     40 H16         13.5980   -29.3420     5.7540 ha         1 VF2       0.130500
     41 H17         17.1710   -28.0040     5.4430 ha         1 VF2       0.117000
     42 H18         14.5220   -27.8280     6.9810 ha         1 VF2       0.150000
     43 H19         18.1190   -26.4850     6.5310 ha         1 VF2       0.180000
     44 H20         19.0310   -24.8160     8.0550 h4         1 VF2       0.189000
     45 H21         17.5170   -23.8050    11.0780 h1         1 VF2       0.086700
     46 H22         18.9840   -23.8300    10.1110 h1         1 VF2       0.086700
     47 H23         17.7560   -21.3230    11.4960 hc         1 VF2       0.049200
     48 H24         19.2570   -21.3470    10.5920 hc         1 VF2       0.049200
     49 H25         17.9430   -18.7800    11.9120 hc         1 VF2       0.046700
     50 H26         19.5140   -18.9540    11.1640 hc         1 VF2       0.046700
     51 H27         18.9040   -16.6250    11.1180 hc         1 VF2       0.062700
     52 H28         18.9510   -17.2320     9.4710 hc         1 VF2       0.062700
     53 H29         14.4650   -26.3480     8.8220 ha         1 VF2       0.180000
     54 H30         16.5270   -31.2560     2.2730 ha         1 VF2       0.146000
     55 N02         14.0620   -32.3110     2.3740 nh         1 VF2      -0.656000
@<TRIPOS>BOND
     1     1    14 1   
     2     1    15 ar  
     3     1    22 ar  
     4     2    18 1   
     5     2    19 1   
     6     2    25 1   
     7     2    26 1   
     8     3    19 1   
     9     3    20 1   
    10     3    27 1   
    11     3    28 1   
    12     4    21 1   
    13     4    24 1   
    14     4    29 1   
    15     4    30 1   
    16     5    17 2   
    17     5    22 ar  
    18     5    31 1   
    19     6    12 ar  
    20     6    23 ar  
    21     6    32 1   
    22     7    33 1   
    23     7    34 1   
    24     7    35 1   
    25     7    55 1   
    26     8    36 1   
    27     8    37 1   
    28     8    38 1   
    29     8    55 1   
    30     9    10 ar  
    31     9    23 ar  
    32     9    55 1   
    33    10    11 ar  
    34    10    39 1   
    35    11    12 ar  
    36    11    40 1   
    37    12    13 1   
    38    13    14 2   
    39    13    41 1   
    40    14    42 1   
    41    15    16 ar  
    42    15    43 1   
    43    16    17 1   
    44    16    44 1   
    45    17    18 1   
    46    18    45 1   
    47    18    46 1   
    48    19    47 1   
    49    19    48 1   
    50    20    21 1   
    51    20    49 1   
    52    20    50 1   
    53    21    51 1   
    54    21    52 1   
    55    22    53 1   
    56    23    54 1   
@<TRIPOS>SUBSTRUCTURE
     1 VF2         1 TEMP              0 ****  ****    0 ROOT
