@<TRIPOS>MOLECULE
VF2
   55    56     1     0     0
SMALL
No Charge or Current Charge


@<TRIPOS>ATOM
      1 C10         16.2710   -26.6540     7.5970 ca         1 VF2       0.129200
      2 C15         17.6360   -22.1890     9.6530 c3         1 VF2      -0.098400
      3 C17         17.9690   -19.6630    10.0270 c3         1 VF2      -0.075400
      4 C20         16.9190   -16.6530    10.2650 c3         1 VF2       0.126600
      5 C22         16.0170   -25.1110     9.4760 ca         1 VF2      -0.001300
      6 C24         16.4620   -30.1690     3.9500 ca         1 VF2       0.001000
      7 C01         12.7450   -33.1480     2.6580 c3         1 VF2       0.203600
      8 C03         14.6030   -32.7660     0.9820 c3         1 VF2       0.203600
      9 C04         14.5290   -31.4130     3.1210 ca         1 VF2       0.400000
     10 C05         13.7070   -30.6560     3.9740 ca         1 VF2      -0.214000
     11 C06         14.2500   -29.6660     4.8090 ca         1 VF2       0.001000
     12 C07         15.6370   -29.4150     4.8070 ca         1 VF2      -0.207800
     13 C08         16.2530   -28.3690     5.6800 ce         1 VF2       0.039800
     14 C09         15.6890   -27.6870     6.7190 cf         1 VF2      -0.306200
     15 C11         17.5960   -26.1960     7.4400 ca         1 VF2      -0.162500
     16 C12         18.1120   -25.2070     8.3000 ca         1 VF2      -0.052000
     17 N13         17.3300   -24.6640     9.3210 na         1 VF2       0.020300
     18 C14         17.8730   -23.6130    10.2020 c3         1 VF2       0.036600
     19 C16         18.2050   -21.0880    10.5750 c3         1 VF2      -0.075400
     20 C18         18.5380   -18.5610    10.9520 c3         1 VF2      -0.076400
     21 C19         18.3820   -17.1240    10.3990 c3         1 VF2      -0.085400
     22 C23         15.4860   -26.0980     8.6250 ca         1 VF2      -0.162500
     23 C25         15.9120   -31.1570     3.1180 ca         1 VF2      -0.214000
     24 Cl1         16.8390   -14.9310     9.6910 cl         1 VF2      -0.277000
     25 H1          18.0960   -22.1040     8.6610 hc         1 VF2       0.059200
     26 H2          16.5580   -22.0290     9.5210 hc         1 VF2       0.059200
     27 H3          18.4320   -19.5770     9.0360 hc         1 VF2       0.044700
     28 H4          16.8910   -19.5100     9.8930 hc         1 VF2       0.044700
     29 H5          16.3740   -17.2670     9.5370 h1         1 VF2       0.061200
     30 H6          16.4070   -16.7040    11.2350 h1         1 VF2       0.061200
     31 H7          15.4180   -24.6680    10.2730 h4         1 VF2       0.171000
     32 H8          17.5370   -29.9950     3.9300 ha         1 VF2       0.112500
     33 H9          12.7080   -33.3090     3.7440 h1         1 VF2       0.051200
     34 H10         11.8510   -32.5880     2.3540 h1         1 VF2       0.051200
     35 H11         12.7160   -34.1350     2.1780 h1         1 VF2       0.051200
     36 H12         15.0420   -31.8770     0.5080 h1         1 VF2       0.051200
     37 H13         15.3930   -33.5150     1.1270 h1         1 VF2       0.051200
     38 H14         13.8590   -33.1760     0.2870 h1         1 VF2       0.051200
     39 H15         12.6340   -30.8200     3.9860 ha         1 VF2       0.128000
     40 H16         13.5790   -29.0940     5.4450 ha         1 VF2       0.112500
     41 H17         17.2920   -28.1560     5.4290 ha         1 VF2       0.167000
     42 H18         14.6560   -27.9260     6.9660 ha         1 VF2       0.200000
     43 H19         18.2350   -26.5930     6.6580 ha         1 VF2       0.162000
     44 H20         19.1330   -24.8370     8.1890 h4         1 VF2       0.171000
     45 H21         17.4090   -23.7070    11.1920 h1         1 VF2       0.086700
     46 H22         18.9500   -23.7820    10.3300 h1         1 VF2       0.086700
     47 H23         17.7440   -21.1730    11.5670 hc         1 VF2       0.049200
     48 H24         19.2830   -21.2490    10.7070 hc         1 VF2       0.049200
     49 H25         18.0540   -18.6240    11.9350 hc         1 VF2       0.046700
     50 H26         19.6060   -18.7540    11.1160 hc         1 VF2       0.046700
     51 H27         18.9110   -16.4340    11.0670 hc         1 VF2       0.062700
     52 H28         18.8740   -17.0540     9.4210 hc         1 VF2       0.062700
     53 H29         14.4590   -26.4280     8.7690 ha         1 VF2       0.162000
     54 H30         16.5740   -31.7310     2.4780 ha         1 VF2       0.128000
     55 N02         13.9760   -32.4120     2.2790 nh         1 VF2      -0.794400
@<TRIPOS>BOND
     1     1    14 1   
     2     1    15 ar  
     3     1    22 ar  
     4     2    18 1   
     5     2    19 1   
     6     2    25 1   
     7     2    26 1   
     8     3    19 1   
     9     3    20 1   
    10     3    27 1   
    11     3    28 1   
    12     4    21 1   
    13     4    24 1   
    14     4    29 1   
    15     4    30 1   
    16     5    17 2   
    17     5    22 ar  
    18     5    31 1   
    19     6    12 ar  
    20     6    23 ar  
    21     6    32 1   
    22     7    33 1   
    23     7    34 1   
    24     7    35 1   
    25     7    55 1   
    26     8    36 1   
    27     8    37 1   
    28     8    38 1   
    29     8    55 1   
    30     9    10 ar  
    31     9    23 ar  
    32     9    55 1   
    33    10    11 ar  
    34    10    39 1   
    35    11    12 ar  
    36    11    40 1   
    37    12    13 1   
    38    13    14 2   
    39    13    41 1   
    40    14    42 1   
    41    15    16 ar  
    42    15    43 1   
    43    16    17 1   
    44    16    44 1   
    45    17    18 1   
    46    18    45 1   
    47    18    46 1   
    48    19    47 1   
    49    19    48 1   
    50    20    21 1   
    51    20    49 1   
    52    20    50 1   
    53    21    51 1   
    54    21    52 1   
    55    22    53 1   
    56    23    54 1   
@<TRIPOS>SUBSTRUCTURE
     1 VF2         1 TEMP              0 ****  ****    0 ROOT
