@<TRIPOS>MOLECULE
VF3
   25    26     1     0     0
SMALL
abcg2


@<TRIPOS>ATOM
      1 C7          27.6890    15.0530    42.0380 c6         1 VF3       0.156300
      2 O1          27.0820    17.6970    40.9540 o          1 VF3      -0.542000
      3 C1          29.0300    16.0640    38.0470 cc         1 VF3       0.007000
      4 C5          30.4080    14.5820    42.6960 c6         1 VF3       0.154600
      5 C6          28.1530    14.3450    43.3000 c6         1 VF3       0.154600
      6 C4          30.0400    15.3030    41.4100 c6         1 VF3       0.156300
      7 C3          27.1630    15.0540    37.1170 cd         1 VF3      -0.208000
      8 C2          28.0770    16.3540    38.9900 cd         1 VF3      -0.482500
      9 O           29.4970    17.9970    40.3770 o          1 VF3      -0.542000
     10 S           26.5310    15.7080    38.5700 ss         1 VF3       0.317000
     11 C           28.4970    15.3190    36.9660 cc         1 VF3      -0.157000
     12 N           28.7490    15.9830    41.6120 n3         1 VF3      -0.730500
     13 O2          29.3890    13.6690    43.0910 os         1 VF3      -0.453000
     14 H1          26.7810    15.6140    42.2420 h1         1 VF3       0.065200
     15 H2          27.4880    14.3170    41.2510 h1         1 VF3       0.065200
     16 H4          31.3150    14.0000    42.5440 h1         1 VF3       0.059700
     17 H5          30.5790    15.3150    43.4940 h1         1 VF3       0.059700
     18 H6          28.2600    15.0720    44.1140 h1         1 VF3       0.059700
     19 H7          27.4220    13.5900    43.5860 h1         1 VF3       0.059700
     20 H8          29.9650    14.5830    40.5870 h1         1 VF3       0.065200
     21 H9          30.8000    16.0420    41.1700 h1         1 VF3       0.065200
     22 H10         26.5100    14.5190    36.4450 h4         1 VF3       0.154000
     23 H11         29.0750    14.9990    36.1100 ha         1 VF3       0.141000
     24 S1          28.3430    17.1450    40.5230 sy         1 VF3       1.224600
     25 H3          30.0600    16.3800    38.1280 ha         1 VF3       0.149000
@<TRIPOS>BOND
     1     1     5 1   
     2     1    12 1   
     3     1    14 1   
     4     1    15 1   
     5     2    24 2   
     6     3     8 2   
     7     3    11 1   
     8     3    25 1   
     9     4     6 1   
    10     4    13 1   
    11     4    16 1   
    12     4    17 1   
    13     5    13 1   
    14     5    18 1   
    15     5    19 1   
    16     6    12 1   
    17     6    20 1   
    18     6    21 1   
    19     7    10 1   
    20     7    11 2   
    21     7    22 1   
    22     8    10 1   
    23     8    24 1   
    24     9    24 2   
    25    11    23 1   
    26    12    24 1   
@<TRIPOS>SUBSTRUCTURE
     1 VF3         1 TEMP              0 ****  ****    0 ROOT
