@<TRIPOS>MOLECULE
VF3
   25    26     1     0     0
SMALL
No Charge or Current Charge


@<TRIPOS>ATOM
      1 C7          27.7140    15.1290    41.9090 c6         1 VF3       0.156300
      2 O1          27.0950    17.9710    40.9740 o          1 VF3      -0.542000
      3 C1          29.0000    15.8790    38.2150 cc         1 VF3       0.007000
      4 C5          30.4510    14.5770    42.6470 c6         1 VF3       0.154600
      5 C6          28.1130    14.1970    43.0890 c6         1 VF3       0.154600
      6 C4          30.1010    15.5220    41.4620 c6         1 VF3       0.156300
      7 C3          27.0810    14.9660    37.2510 cd         1 VF3      -0.208000
      8 C2          28.0600    16.3310    39.1050 cd         1 VF3      -0.482500
      9 O           29.5540    18.1730    40.2960 o          1 VF3      -0.542000
     10 S           26.4270    15.8400    38.6490 ss         1 VF3       0.317000
     11 C           28.4440    15.1000    37.1720 cc         1 VF3      -0.157000
     12 N           28.7620    16.1610    41.6470 n3         1 VF3      -0.730500
     13 O2          29.4050    13.5940    42.8360 os         1 VF3      -0.453000
     14 H1          26.7510    15.6020    42.1520 h1         1 VF3       0.065200
     15 H2          27.5520    14.5020    41.0200 h1         1 VF3       0.065200
     16 H4          31.4000    14.0600    42.4460 h1         1 VF3       0.059700
     17 H5          30.5700    15.1630    43.5700 h1         1 VF3       0.059700
     18 H6          28.1570    14.7750    44.0230 h1         1 VF3       0.059700
     19 H7          27.3620    13.4050    43.2120 h1         1 VF3       0.059700
     20 H8          30.1270    14.9350    40.5330 h1         1 VF3       0.065200
     21 H9          30.8930    16.2810    41.3870 h1         1 VF3       0.065200
     22 H10         26.4160    14.4290    36.5860 h4         1 VF3       0.154000
     23 H11         29.0560    14.6610    36.3890 ha         1 VF3       0.141000
     24 S1          28.3470    17.3650    40.5090 sy         1 VF3       1.224600
     25 H3          30.0660    16.0860    38.2820 ha         1 VF3       0.149000
@<TRIPOS>BOND
     1     1     5 1   
     2     1    12 1   
     3     1    14 1   
     4     1    15 1   
     5     2    24 2   
     6     3     8 2   
     7     3    11 1   
     8     3    25 1   
     9     4     6 1   
    10     4    13 1   
    11     4    16 1   
    12     4    17 1   
    13     5    13 1   
    14     5    18 1   
    15     5    19 1   
    16     6    12 1   
    17     6    20 1   
    18     6    21 1   
    19     7    10 1   
    20     7    11 2   
    21     7    22 1   
    22     8    10 1   
    23     8    24 1   
    24     9    24 2   
    25    11    23 1   
    26    12    24 1   
@<TRIPOS>SUBSTRUCTURE
     1 VF3         1 TEMP              0 ****  ****    0 ROOT
