@<TRIPOS>MOLECULE
VF4
   22    22     1     0     0
SMALL
abcg2


@<TRIPOS>ATOM
      1 C02         21.3280   -25.1570   -25.4840 c6         1 VF4       0.175300
      2 C03         20.5680   -24.3570   -26.5300 c6         1 VF4      -0.065400
      3 C04         19.7230   -25.2050   -27.5150 c6         1 VF4      -0.050700
      4 C05         18.2650   -24.7520   -27.5000 c3         1 VF4      -0.090100
      5 C06         19.8380   -26.7060   -27.2280 c6         1 VF4      -0.068400
      6 C07         19.6130   -27.0530   -25.7570 c6         1 VF4      -0.063400
      7 C08         20.3920   -26.1400   -24.7880 c6         1 VF4      -0.108400
      8 O01         22.4270   -25.7960   -26.1120 oh         1 VF4      -0.660000
      9 H021        21.7000   -24.4530   -24.7250 h1         1 VF4       0.024700
     10 H032        21.2680   -23.7180   -27.0740 hc         1 VF4       0.045200
     11 H031        19.9110   -23.6740   -25.9820 hc         1 VF4       0.045200
     12 H041        20.1030   -25.0370   -28.5260 hc         1 VF4       0.047700
     13 H051        18.1780   -23.6860   -27.7220 hc         1 VF4       0.030700
     14 H052        17.6720   -25.2930   -28.2400 hc         1 VF4       0.030700
     15 H053        17.8080   -24.9170   -26.5210 hc         1 VF4       0.030700
     16 H062        19.1120   -27.2460   -27.8430 hc         1 VF4       0.044700
     17 H061        20.8230   -27.0560   -27.5370 hc         1 VF4       0.044700
     18 H071        18.5460   -26.9940   -25.5290 hc         1 VF4       0.035200
     19 H072        19.8880   -28.0970   -25.5960 hc         1 VF4       0.035200
     20 H082        19.6940   -25.5460   -24.1930 hc         1 VF4       0.038700
     21 H081        20.9580   -26.7350   -24.0650 hc         1 VF4       0.038700
     22 H011        22.8520   -26.3660   -25.4630 ho         1 VF4       0.438000
@<TRIPOS>BOND
     1     1     2 1   
     2     1     7 1   
     3     1     8 1   
     4     1     9 1   
     5     2     3 1   
     6     2    10 1   
     7     2    11 1   
     8     3     4 1   
     9     3     5 1   
    10     3    12 1   
    11     4    13 1   
    12     4    14 1   
    13     4    15 1   
    14     5     6 1   
    15     5    16 1   
    16     5    17 1   
    17     6     7 1   
    18     6    18 1   
    19     6    19 1   
    20     7    20 1   
    21     7    21 1   
    22     8    22 1   
@<TRIPOS>SUBSTRUCTURE
     1 VF4         1 TEMP              0 ****  ****    0 ROOT
