@<TRIPOS>MOLECULE
VF4
   22    22     1     0     0
SMALL
No Charge or Current Charge


@<TRIPOS>ATOM
      1 C02         21.2920   -25.1280   -25.4630 c6         1 VF4       0.175300
      2 C03         20.7350   -24.3810   -26.7160 c6         1 VF4      -0.065400
      3 C04         19.6680   -25.1770   -27.5400 c6         1 VF4      -0.050700
      4 C05         18.2110   -24.7160   -27.2380 c3         1 VF4      -0.090100
      5 C06         19.8430   -26.7080   -27.3560 c6         1 VF4      -0.068400
      6 C07         19.7240   -27.1560   -25.8710 c6         1 VF4      -0.063400
      7 C08         20.2430   -26.0930   -24.8560 c6         1 VF4      -0.108400
      8 O01         22.4880   -25.8460   -25.7930 oh         1 VF4      -0.660000
      9 H021        21.5390   -24.3710   -24.7040 h1         1 VF4       0.024700
     10 H032        21.5730   -24.1080   -27.3730 hc         1 VF4       0.045200
     11 H031        20.3060   -23.4220   -26.3950 hc         1 VF4       0.045200
     12 H041        19.8240   -24.9450   -28.6030 hc         1 VF4       0.047700
     13 H051        18.0810   -23.6510   -27.4650 hc         1 VF4       0.030700
     14 H052        17.4890   -25.2690   -27.8500 hc         1 VF4       0.030700
     15 H053        17.9370   -24.8640   -26.1880 hc         1 VF4       0.030700
     16 H062        19.1120   -27.2540   -27.9690 hc         1 VF4       0.044700
     17 H061        20.8290   -27.0000   -27.7430 hc         1 VF4       0.044700
     18 H071        18.6770   -27.3910   -25.6370 hc         1 VF4       0.035200
     19 H072        20.2780   -28.0950   -25.7390 hc         1 VF4       0.035200
     20 H082        19.3960   -25.4990   -24.4870 hc         1 VF4       0.038700
     21 H081        20.6540   -26.5950   -23.9690 hc         1 VF4       0.038700
     22 H011        22.7640   -26.3150   -24.9760 ho         1 VF4       0.438000
@<TRIPOS>BOND
     1     1     2 1   
     2     1     7 1   
     3     1     8 1   
     4     1     9 1   
     5     2     3 1   
     6     2    10 1   
     7     2    11 1   
     8     3     4 1   
     9     3     5 1   
    10     3    12 1   
    11     4    13 1   
    12     4    14 1   
    13     4    15 1   
    14     5     6 1   
    15     5    16 1   
    16     5    17 1   
    17     6     7 1   
    18     6    18 1   
    19     6    19 1   
    20     7    20 1   
    21     7    21 1   
    22     8    22 1   
@<TRIPOS>SUBSTRUCTURE
     1 VF4         1 TEMP              0 ****  ****    0 ROOT
