@<TRIPOS>MOLECULE
VF6
   44    46     1     0     0
SMALL
No Charge or Current Charge


@<TRIPOS>ATOM
      1 C10          7.3190     9.0490    24.4450 cx         1 VF6      -0.133400
      2 C13         10.1370     5.8600    27.9640 cp         1 VF6      -0.161500
      3 C15         10.9450     7.0790    29.9370 ca         1 VF6      -0.151000
      4 C21          8.5650     6.9860    29.4800 ca         1 VF6      -0.151000
      5 C22          8.8170     6.2100    28.3350 ca         1 VF6      -0.059000
      6 C02         11.4540     3.1800    25.8940 ca         1 VF6       0.407900
      7 C04         10.4140     4.5120    24.3990 ca         1 VF6       0.422900
      8 C06         10.0130     5.3900    25.4250 ca         1 VF6      -0.291300
      9 C07          9.2360     6.6800    25.1180 c3         1 VF6      -0.010100
     10 C08          7.7330     6.4250    24.8230 c3         1 VF6      -0.046400
     11 C09          6.8200     7.6570    24.7680 cx         1 VF6      -0.124700
     12 C11          6.8300     8.7240    25.8400 cx         1 VF6      -0.133400
     13 C12         10.4200     5.0350    26.7460 cp         1 VF6       0.242500
     14 C14         11.1970     6.3030    28.7920 ca         1 VF6      -0.059000
     15 C16          9.6290     7.4130    30.2980 ca         1 VF6      -0.015000
     16 C18          8.3820     8.2720    32.3620 c          1 VF6       0.612100
     17 C19          7.4480     7.0630    32.4680 c3         1 VF6      -0.177100
     18 N03         11.1270     3.4060    24.6220 nb         1 VF6      -0.330000
     19 N05         10.1300     4.7270    23.0900 nv         1 VF6      -1.080900
     20 N17          9.4280     8.2130    31.4520 ns         1 VF6      -0.169000
     21 N23         11.1550     3.9270    26.9580 nb         1 VF6      -0.282000
     22 O20          8.2680     9.2240    33.1250 o          1 VF6      -0.592100
     23 H1           8.3850     9.2130    24.3120 hc         1 VF6       0.070950
     24 H2           6.6870     9.6780    23.8230 hc         1 VF6       0.070950
     25 H3          11.7790     7.4130    30.5500 ha         1 VF6       0.120000
     26 H4           7.5400     7.2630    29.7060 ha         1 VF6       0.120000
     27 H5           7.9780     5.8760    27.7320 ha         1 VF6       0.125000
     28 H6           9.6860     7.1910    24.2580 hc         1 VF6       0.048200
     29 H7           9.3400     7.3860    25.9470 hc         1 VF6       0.048200
     30 H8           7.3340     5.7330    25.5730 hc         1 VF6       0.040200
     31 H9           7.6520     5.8940    23.8680 hc         1 VF6       0.040200
     32 H10          5.8380     7.3980    24.3780 hc         1 VF6       0.073700
     33 H11          7.5670     8.6580    26.6370 hc         1 VF6       0.070950
     34 H12          5.8720     9.1370    26.1490 hc         1 VF6       0.070950
     35 H13         12.2240     6.0520    28.5360 ha         1 VF6       0.125000
     36 H14          7.0290     6.9680    33.4770 hc         1 VF6       0.064700
     37 H15          6.6210     7.2020    31.7650 hc         1 VF6       0.064700
     38 H16          7.9490     6.1460    32.1400 hc         1 VF6       0.064700
     39 H17         12.6220     1.6040    25.3340 hn         1 VF6       0.486000
     40 H18         12.6490     1.9700    27.0270 hn         1 VF6       0.486000
     41 H19         10.2690     3.9590    22.4390 hn         1 VF6       0.494000
     42 H20          9.4210     5.4110    22.8510 hn         1 VF6       0.494000
     43 H21         10.1090     8.9530    31.5610 hn         1 VF6       0.156000
     44 N01         12.1860     2.0670    26.1270 nv         1 VF6      -1.052900
@<TRIPOS>BOND
     1     1    11 1   
     2     1    12 1   
     3     1    23 1   
     4     1    24 1   
     5     2     5 ar  
     6     2    13 1   
     7     2    14 ar  
     8     3    14 ar  
     9     3    15 ar  
    10     3    25 1   
    11     4     5 ar  
    12     4    15 ar  
    13     4    26 1   
    14     5    27 1   
    15     6    18 ar  
    16     6    21 ar  
    17     6    44 1   
    18     7     8 ar  
    19     7    18 ar  
    20     7    19 1   
    21     8     9 1   
    22     8    13 ar  
    23     9    10 1   
    24     9    28 1   
    25     9    29 1   
    26    10    11 1   
    27    10    30 1   
    28    10    31 1   
    29    11    12 1   
    30    11    32 1   
    31    12    33 1   
    32    12    34 1   
    33    13    21 ar  
    34    14    35 1   
    35    15    20 1   
    36    16    17 1   
    37    16    20 1   
    38    16    22 2   
    39    17    36 1   
    40    17    37 1   
    41    17    38 1   
    42    19    41 1   
    43    19    42 1   
    44    20    43 1   
    45    39    44 1   
    46    40    44 1   
@<TRIPOS>SUBSTRUCTURE
     1 VF6         1 TEMP              0 ****  ****    0 ROOT
