@<TRIPOS>MOLECULE
VF6
   44    46     1     0     0
SMALL
abcg2


@<TRIPOS>ATOM
      1 C10          7.2880     8.9330    24.3070 cx         1 VF6      -0.133400
      2 C13         10.1110     5.8880    27.9690 cp         1 VF6      -0.161500
      3 C15         10.9330     6.9860    29.9610 ca         1 VF6      -0.151000
      4 C21          8.5940     7.0730    29.4390 ca         1 VF6      -0.151000
      5 C22          8.8280     6.3080    28.3070 ca         1 VF6      -0.059000
      6 C02         11.4630     3.2420    25.9530 ca         1 VF6       0.407900
      7 C04         10.3970     4.5720    24.4560 ca         1 VF6       0.422900
      8 C06          9.9690     5.4400    25.4950 ca         1 VF6      -0.291300
      9 C07          9.1640     6.6720    25.1860 c3         1 VF6      -0.010100
     10 C08          7.6820     6.3830    24.9200 c3         1 VF6      -0.046400
     11 C09          6.7930     7.5980    24.7710 cx         1 VF6      -0.124700
     12 C11          6.8440     8.7480    25.7290 cx         1 VF6      -0.133400
     13 C12         10.3970     5.0740    26.7620 cp         1 VF6       0.242500
     14 C14         11.1590     6.2340    28.8220 ca         1 VF6      -0.059000
     15 C16          9.6450     7.4100    30.2860 ca         1 VF6      -0.015000
     16 C18          8.4980     8.1500    32.3840 c          1 VF6       0.612100
     17 C19          7.4840     7.0380    32.3160 c3         1 VF6      -0.177100
     18 N03         11.1190     3.4820    24.6900 nb         1 VF6      -0.330000
     19 N05         10.1280     4.8370    23.1630 nv         1 VF6      -1.080900
     20 N17          9.4640     8.2070    31.4250 ns         1 VF6      -0.169000
     21 N23         11.1490     3.9920    27.0020 nb         1 VF6      -0.282000
     22 O20          8.4790     8.9790    33.2770 o          1 VF6      -0.592100
     23 H1           8.3470     9.0650    24.1240 hc         1 VF6       0.070950
     24 H2           6.6560     9.5080    23.6410 hc         1 VF6       0.070950
     25 H3          11.7610     7.2450    30.6090 ha         1 VF6       0.120000
     26 H4           7.5890     7.4140    29.6430 ha         1 VF6       0.120000
     27 H5           7.9860     6.0420    27.6820 ha         1 VF6       0.125000
     28 H6           9.5950     7.1830    24.3190 hc         1 VF6       0.048200
     29 H7           9.2640     7.3780    26.0110 hc         1 VF6       0.048200
     30 H8           7.2870     5.7630    25.7300 hc         1 VF6       0.040200
     31 H9           7.5880     5.7680    24.0200 hc         1 VF6       0.040200
     32 H10          5.7950     7.3420    24.4300 hc         1 VF6       0.073700
     33 H11          7.6030     8.7530    26.5020 hc         1 VF6       0.070950
     34 H12          5.9070     9.1940    26.0380 hc         1 VF6       0.070950
     35 H13         12.1660     5.9150    28.5910 ha         1 VF6       0.125000
     36 H14          7.1380     6.8250    33.3250 hc         1 VF6       0.064700
     37 H15          6.6170     7.3530    31.7330 hc         1 VF6       0.064700
     38 H16          7.8700     6.1240    31.8710 hc         1 VF6       0.064700
     39 H17         12.6260     1.6680    25.4110 hn         1 VF6       0.486000
     40 H18         12.6330     2.0280    27.0780 hn         1 VF6       0.486000
     41 H19         10.3660     4.1450    22.4730 hn         1 VF6       0.494000
     42 H20          9.4690     5.5420    22.8890 hn         1 VF6       0.494000
     43 H21         10.1830     8.8960    31.6020 hn         1 VF6       0.156000
     44 N01         12.1680     2.1070    26.1910 nv         1 VF6      -1.052900
@<TRIPOS>BOND
     1     1    11 1   
     2     1    12 1   
     3     1    23 1   
     4     1    24 1   
     5     2     5 ar  
     6     2    13 1   
     7     2    14 ar  
     8     3    14 ar  
     9     3    15 ar  
    10     3    25 1   
    11     4     5 ar  
    12     4    15 ar  
    13     4    26 1   
    14     5    27 1   
    15     6    18 ar  
    16     6    21 ar  
    17     6    44 1   
    18     7     8 ar  
    19     7    18 ar  
    20     7    19 1   
    21     8     9 1   
    22     8    13 ar  
    23     9    10 1   
    24     9    28 1   
    25     9    29 1   
    26    10    11 1   
    27    10    30 1   
    28    10    31 1   
    29    11    12 1   
    30    11    32 1   
    31    12    33 1   
    32    12    34 1   
    33    13    21 ar  
    34    14    35 1   
    35    15    20 1   
    36    16    17 1   
    37    16    20 1   
    38    16    22 2   
    39    17    36 1   
    40    17    37 1   
    41    17    38 1   
    42    19    41 1   
    43    19    42 1   
    44    20    43 1   
    45    39    44 1   
    46    40    44 1   
@<TRIPOS>SUBSTRUCTURE
     1 VF6         1 TEMP              0 ****  ****    0 ROOT
