@<TRIPOS>MOLECULE
VF9
   32    33     1     0     0
SMALL
abcg2


@<TRIPOS>ATOM
      1 C7          28.8340    16.6970    40.1340 c3         1 VF9       0.098400
      2 C8          28.3910    16.1600    38.8090 cc         1 VF9       0.106300
      3 C9          28.9050    15.2710    37.9190 cd         1 VF9      -0.164000
      4 O1          27.1790    16.6100    38.3480 os         1 VF9      -0.255000
      5 C5          30.7470    16.5420    41.8610 c3         1 VF9      -0.066400
      6 C6          30.3160    16.3900    40.3980 c3         1 VF9      -0.081400
      7 C4          30.5500    15.2650    42.6880 c3         1 VF9      -0.072400
      8 C3          29.0980    14.8710    42.9610 c3         1 VF9      -0.095400
      9 C2          28.1960    14.8610    41.7260 c3         1 VF9       0.103000
     10 O           26.2720    16.5030    42.6880 o          1 VF9      -0.614100
     11 C           26.7520    18.3680    41.2780 c3         1 VF9      -0.174100
     12 N           27.9590    16.2130    41.2140 n          1 VF9      -0.411800
     13 C11         26.9340    15.9900    37.1570 cc         1 VF9       0.136900
     14 C10         27.9590    15.1610    36.8450 cd         1 VF9      -0.187000
     15 H1          28.7280    17.7790    40.1080 h1         1 VF9       0.069700
     16 H2          29.8440    14.7510    38.0050 ha         1 VF9       0.140000
     17 H3          31.8090    16.7960    41.8780 hc         1 VF9       0.043200
     18 H4          30.2210    17.3820    42.3260 hc         1 VF9       0.043200
     19 H5          30.5550    15.3780    40.0660 hc         1 VF9       0.049700
     20 H6          30.8910    17.0650    39.7610 hc         1 VF9       0.049700
     21 H7          31.0510    14.4440    42.1630 hc         1 VF9       0.037700
     22 H8          31.0640    15.3760    43.6470 hc         1 VF9       0.037700
     23 H9          28.6570    15.5560    43.6900 hc         1 VF9       0.053700
     24 H10         29.0750    13.8750    43.4130 hc         1 VF9       0.053700
     25 H11         27.2320    14.4210    41.9730 h1         1 VF9       0.058200
     26 H12         28.6350    14.2700    40.9220 h1         1 VF9       0.058200
     27 H13         25.8950    18.7750    41.8070 hc         1 VF9       0.062033
     28 H14         27.6220    18.9970    41.4800 hc         1 VF9       0.062033
     29 H15         26.5610    18.3940    40.2060 hc         1 VF9       0.062033
     30 H16         26.0100    16.2490    36.6700 h4         1 VF9       0.053100
     31 H17         28.0440    14.5500    35.9620 ha         1 VF9       0.143000
     32 C1          26.9760    16.9560    41.7780 c          1 VF9       0.601100
@<TRIPOS>BOND
     1     1     2 1   
     2     1     6 1   
     3     1    12 1   
     4     1    15 1   
     5     2     3 2   
     6     2     4 1   
     7     3    14 1   
     8     3    16 1   
     9     4    13 1   
    10     5     6 1   
    11     5     7 1   
    12     5    17 1   
    13     5    18 1   
    14     6    19 1   
    15     6    20 1   
    16     7     8 1   
    17     7    21 1   
    18     7    22 1   
    19     8     9 1   
    20     8    23 1   
    21     8    24 1   
    22     9    12 1   
    23     9    25 1   
    24     9    26 1   
    25    10    32 2   
    26    11    27 1   
    27    11    28 1   
    28    11    29 1   
    29    11    32 1   
    30    12    32 1   
    31    13    14 2   
    32    13    30 1   
    33    14    31 1   
@<TRIPOS>SUBSTRUCTURE
     1 VF9         1 TEMP              0 ****  ****    0 ROOT
