@<TRIPOS>MOLECULE
VF9
   32    33     1     0     0
SMALL
No Charge or Current Charge


@<TRIPOS>ATOM
      1 C7          28.8520    16.6640    40.2840 c3         1 VF9       0.098400
      2 C8          28.3240    16.3570    38.9010 cc         1 VF9       0.106300
      3 C9          27.7090    15.2430    38.3960 cd         1 VF9      -0.164000
      4 O1          28.4220    17.3150    37.9160 os         1 VF9      -0.255000
      5 C5          31.0230    16.5750    41.7420 c3         1 VF9      -0.066400
      6 C6          30.3690    16.3430    40.3570 c3         1 VF9      -0.081400
      7 C4          30.8810    15.3850    42.7180 c3         1 VF9      -0.072400
      8 C3          29.4360    15.0510    43.1460 c3         1 VF9      -0.095400
      9 C2          28.4770    14.7760    41.9720 c3         1 VF9       0.103000
     10 O           25.9080    15.8550    42.3040 o          1 VF9      -0.614100
     11 C           26.1950    17.8090    40.9730 c3         1 VF9      -0.174100
     12 N           27.9930    16.0260    41.3290 n          1 VF9      -0.411800
     13 C11         27.8580    16.7790    36.7790 cc         1 VF9       0.136900
     14 C10         27.4140    15.5130    37.0450 cd         1 VF9      -0.187000
     15 H1          28.7830    17.7500    40.4230 h1         1 VF9       0.069700
     16 H2          27.4920    14.3290    38.9400 ha         1 VF9       0.140000
     17 H3          32.0940    16.7570    41.5890 hc         1 VF9       0.043200
     18 H4          30.6170    17.4860    42.1990 hc         1 VF9       0.043200
     19 H5          30.5570    15.3150    40.0250 hc         1 VF9       0.049700
     20 H6          30.8780    16.9880    39.6290 hc         1 VF9       0.049700
     21 H7          31.3330    14.4950    42.2620 hc         1 VF9       0.037700
     22 H8          31.4690    15.5990    43.6190 hc         1 VF9       0.037700
     23 H9          29.0320    15.8610    43.7650 hc         1 VF9       0.053700
     24 H10         29.4670    14.1590    43.7840 hc         1 VF9       0.053700
     25 H11         27.6270    14.1940    42.3490 h1         1 VF9       0.058200
     26 H12         28.9720    14.1390    41.2270 h1         1 VF9       0.058200
     27 H13         25.1800    18.0710    41.2910 hc         1 VF9       0.062033
     28 H14         26.9050    18.6010    41.2330 hc         1 VF9       0.062033
     29 H15         26.2620    17.7660    39.8820 hc         1 VF9       0.062033
     30 H16         27.8390    17.3860    35.8830 h4         1 VF9       0.053100
     31 H17         26.9250    14.8480    36.3400 ha         1 VF9       0.143000
     32 C1          26.6690    16.4810    41.5780 c          1 VF9       0.601100
@<TRIPOS>BOND
     1     1     2 1   
     2     1     6 1   
     3     1    12 1   
     4     1    15 1   
     5     2     3 2   
     6     2     4 1   
     7     3    14 1   
     8     3    16 1   
     9     4    13 1   
    10     5     6 1   
    11     5     7 1   
    12     5    17 1   
    13     5    18 1   
    14     6    19 1   
    15     6    20 1   
    16     7     8 1   
    17     7    21 1   
    18     7    22 1   
    19     8     9 1   
    20     8    23 1   
    21     8    24 1   
    22     9    12 1   
    23     9    25 1   
    24     9    26 1   
    25    10    32 2   
    26    11    27 1   
    27    11    28 1   
    28    11    29 1   
    29    11    32 1   
    30    12    32 1   
    31    13    14 2   
    32    13    30 1   
    33    14    31 1   
@<TRIPOS>SUBSTRUCTURE
     1 VF9         1 TEMP              0 ****  ****    0 ROOT
