@<TRIPOS>MOLECULE
VFA
   44    47     1     0     0
SMALL
No Charge or Current Charge


@<TRIPOS>ATOM
      1 C1          47.2900    72.0630    34.3060 ca         1 VFA      -0.190000
      2 C2          47.4590    71.0910    33.3000 ca         1 VFA      -0.060300
      3 C3          48.2940    73.0270    34.5430 ca         1 VFA       0.144100
      4 C4          48.6390    71.0870    32.5320 ca         1 VFA      -0.137000
      5 C5          46.3780    70.0480    33.0520 c3         1 VFA       0.150300
      6 C6          49.4640    73.0130    33.7680 ca         1 VFA      -0.143000
      7 C7          49.6400    72.0460    32.7640 ca         1 VFA      -0.073000
      8 C8          47.0220    74.0930    36.3710 c3         1 VFA       0.148900
      9 C9          48.3190    62.1210    39.0520 ca         1 VFA       0.341900
     10 C10         48.1080    63.1740    38.1470 ca         1 VFA      -0.151000
     11 C11         47.0410    64.0740    38.3620 ca         1 VFA       0.023000
     12 C12         46.2270    63.8410    39.4870 ca         1 VFA      -0.177300
     13 C13         46.5070    62.7570    40.3370 ca         1 VFA       0.355900
     14 C14         46.7570    65.1840    37.5250 ca         1 VFA      -0.098000
     15 C15         45.7870    66.1260    37.9400 ca         1 VFA       0.138100
     16 C16         44.9860    64.6900    39.7330 c6         1 VFA       0.213900
     17 O1          48.1770    73.9980    35.5180 os         1 VFA      -0.342100
     18 C17         47.4310    65.4150    36.3040 ca         1 VFA      -0.067000
     19 C18         47.1400    66.5480    35.5220 ca         1 VFA      -0.123000
     20 O2          45.1410    65.9970    39.1510 os         1 VFA      -0.331100
     21 N1          46.5260    68.9010    33.9500 ns         1 VFA      -0.502900
     22 C19         46.1770    67.4940    35.9440 ca         1 VFA      -0.111600
     23 O3          45.0110    69.5500    35.5110 o          1 VFA      -0.583100
     24 C20         45.5140    67.2660    37.1690 ca         1 VFA      -0.087000
     25 C21         45.8430    68.7350    35.1360 c          1 VFA       0.607700
     26 N2          47.5380    61.9080    40.1340 nb         1 VFA      -0.661000
     27 H1          46.3760    72.0510    34.8940 ha         1 VFA       0.115000
     28 H2          48.7830    70.3400    31.7550 ha         1 VFA       0.111000
     29 H3          45.3860    70.5010    33.1820 h1         1 VFA       0.059700
     30 H4          46.4410    69.6900    32.0160 h1         1 VFA       0.059700
     31 H5          50.2390    73.7540    33.9480 ha         1 VFA       0.127000
     32 H6          50.5500    72.0390    32.1680 ha         1 VFA       0.114000
     33 H7          47.1360    74.9290    37.0720 h1         1 VFA       0.040367
     34 H8          46.1140    74.2660    35.7790 h1         1 VFA       0.040367
     35 H9          46.8920    73.1740    36.9560 h1         1 VFA       0.040367
     36 H11         48.7970    63.2740    37.3170 ha         1 VFA       0.126000
     37 H12         45.8760    62.5500    41.2010 h4         1 VFA       0.021100
     38 H13         44.1180    64.1990    39.2690 h1         1 VFA       0.067200
     39 H14         44.7870    64.7960    40.8090 h1         1 VFA       0.067200
     40 H15         48.1780    64.7250    35.9270 ha         1 VFA       0.118000
     41 H16         47.6820    66.6740    34.5890 ha         1 VFA       0.116000
     42 H17         47.2030    68.1900    33.7090 hn         1 VFA       0.318500
     43 H18         44.7770    67.9770    37.5330 ha         1 VFA       0.154000
     44 H10         49.1440    61.4250    38.9080 h4         1 VFA       0.021100
@<TRIPOS>BOND
     1     1     2 ar  
     2     1     3 ar  
     3     1    27 1   
     4     2     4 ar  
     5     2     5 1   
     6     3     6 ar  
     7     3    17 1   
     8     4     7 ar  
     9     4    28 1   
    10     5    21 1   
    11     5    29 1   
    12     5    30 1   
    13     6     7 ar  
    14     6    31 1   
    15     7    32 1   
    16     8    17 1   
    17     8    33 1   
    18     8    34 1   
    19     8    35 1   
    20     9    10 ar  
    21     9    26 ar  
    22     9    44 1   
    23    10    11 ar  
    24    10    36 1   
    25    11    12 ar  
    26    11    14 1   
    27    12    13 ar  
    28    12    16 1   
    29    13    26 ar  
    30    13    37 1   
    31    14    15 ar  
    32    14    18 ar  
    33    15    20 1   
    34    15    24 ar  
    35    16    20 1   
    36    16    38 1   
    37    16    39 1   
    38    18    19 ar  
    39    18    40 1   
    40    19    22 ar  
    41    19    41 1   
    42    21    25 1   
    43    21    42 1   
    44    22    24 ar  
    45    22    25 1   
    46    23    25 2   
    47    24    43 1   
@<TRIPOS>SUBSTRUCTURE
     1 VFA         1 TEMP              0 ****  ****    0 ROOT
