@<TRIPOS>MOLECULE
VFA
   44    47     1     0     0
SMALL
bcc


@<TRIPOS>ATOM
      1 C1          47.1230    72.6020    34.0510 ca         1 VFA      -0.208000
      2 C2          47.4440    71.2580    34.2390 ca         1 VFA      -0.060300
      3 C3          48.0120    73.6000    34.4390 ca         1 VFA       0.144100
      4 C4          48.6540    70.9140    34.8220 ca         1 VFA      -0.155000
      5 C5          46.4680    70.2140    33.7450 c3         1 VFA       0.150300
      6 C6          49.2300    73.2500    35.0270 ca         1 VFA      -0.161000
      7 C7          49.5370    71.9150    35.2140 ca         1 VFA      -0.091000
      8 C8          46.5640    75.3310    33.7010 c3         1 VFA       0.125700
      9 C9          47.6690    61.2610    38.0780 ca         1 VFA       0.407200
     10 C10         47.4240    62.4000    37.3300 ca         1 VFA      -0.234300
     11 C11         46.9350    63.5310    37.9760 ca         1 VFA       0.023000
     12 C12         46.7330    63.4560    39.3540 ca         1 VFA      -0.242600
     13 C13         47.0310    62.2730    40.0090 ca         1 VFA       0.421200
     14 C14         46.6630    64.8100    37.3210 ca         1 VFA      -0.098000
     15 C15         46.5730    65.9490    38.1320 ca         1 VFA       0.138100
     16 C16         46.1690    64.6580    40.0430 c6         1 VFA       0.190700
     17 O1          47.7790    74.9180    34.2910 os         1 VFA      -0.318900
     18 C17         46.5470    64.9670    35.9420 ca         1 VFA      -0.085000
     19 C18         46.3840    66.2180    35.3780 ca         1 VFA      -0.141000
     20 O2          46.6810    65.8570    39.4750 os         1 VFA      -0.307900
     21 N1          46.5850    68.9310    34.3920 ns         1 VFA      -0.569900
     22 C19         46.3350    67.3490    36.1940 ca         1 VFA      -0.111600
     23 O3          45.6250    69.6110    36.3110 o          1 VFA      -0.583100
     24 C20         46.4120    67.2070    37.5730 ca         1 VFA      -0.105000
     25 C21         46.1470    68.7280    35.6450 c          1 VFA       0.674700
     26 N2          47.4830    61.1880    39.3920 nb         1 VFA      -0.661000
     27 H1          46.1690    72.8520    33.6040 ha         1 VFA       0.133000
     28 H2          48.9160    69.8760    34.9780 ha         1 VFA       0.129000
     29 H3          45.4480    70.5850    33.8530 h1         1 VFA       0.059700
     30 H4          46.6270    70.0480    32.6790 h1         1 VFA       0.059700
     31 H5          49.9200    74.0260    35.3340 ha         1 VFA       0.145000
     32 H6          50.4810    71.6480    35.6730 ha         1 VFA       0.132000
     33 H7          46.5860    76.4180    33.6730 h1         1 VFA       0.040367
     34 H8          46.4570    74.9560    32.6790 h1         1 VFA       0.040367
     35 H9          45.6960    75.0130    34.2850 h1         1 VFA       0.040367
     36 H11         47.6240    62.3930    36.2670 ha         1 VFA       0.144000
     37 H12         46.8910    62.1990    41.0830 h4         1 VFA       0.021100
     38 H13         45.0740    64.6580    39.9670 h1         1 VFA       0.067200
     39 H14         46.4310    64.6760    41.0990 h1         1 VFA       0.067200
     40 H15         46.5770    64.0990    35.2970 ha         1 VFA       0.136000
     41 H16         46.2750    66.2970    34.3050 ha         1 VFA       0.134000
     42 H17         47.1180    68.2160    33.9250 hn         1 VFA       0.318500
     43 H18         46.3560    68.0730    38.2210 ha         1 VFA       0.172000
     44 H10         48.0440    60.3680    37.5920 h4         1 VFA       0.021100
@<TRIPOS>BOND
     1     1     2 ar  
     2     1     3 ar  
     3     1    27 1   
     4     2     4 ar  
     5     2     5 1   
     6     3     6 ar  
     7     3    17 1   
     8     4     7 ar  
     9     4    28 1   
    10     5    21 1   
    11     5    29 1   
    12     5    30 1   
    13     6     7 ar  
    14     6    31 1   
    15     7    32 1   
    16     8    17 1   
    17     8    33 1   
    18     8    34 1   
    19     8    35 1   
    20     9    10 ar  
    21     9    26 ar  
    22     9    44 1   
    23    10    11 ar  
    24    10    36 1   
    25    11    12 ar  
    26    11    14 1   
    27    12    13 ar  
    28    12    16 1   
    29    13    26 ar  
    30    13    37 1   
    31    14    15 ar  
    32    14    18 ar  
    33    15    20 1   
    34    15    24 ar  
    35    16    20 1   
    36    16    38 1   
    37    16    39 1   
    38    18    19 ar  
    39    18    40 1   
    40    19    22 ar  
    41    19    41 1   
    42    21    25 1   
    43    21    42 1   
    44    22    24 ar  
    45    22    25 1   
    46    23    25 2   
    47    24    43 1   
@<TRIPOS>SUBSTRUCTURE
     1 VFA         1 TEMP              0 ****  ****    0 ROOT
