@<TRIPOS>MOLECULE
VFB
   19    21     1     0     0
SMALL
bcc


@<TRIPOS>ATOM
      1 N1           0.2960    -1.6330    -0.0360 na         1 VFB      -0.171500
      2 CAB         -2.1950    -1.2200    -0.0140 ca         1 VFB      -0.103000
      3 CAC         -2.7430     1.1510     0.0220 ca         1 VFB      -0.096000
      4 CAD         -0.8600    -0.8540    -0.0180 ca         1 VFB      -0.044200
      5 CAE         -1.4090     1.5240     0.0170 ca         1 VFB      -0.061000
      6 CAF          2.9690     0.5910    -0.0160 cc         1 VFB       0.468400
      7 CAG          1.3220    -0.7910    -0.0310 cz         1 VFB       0.108400
      8 NAH          2.6530    -0.7430    -0.0370 na         1 VFB      -0.317900
      9 NAI          1.9210     1.3510    -0.0000 n2         1 VFB      -0.409800
     10 CAJ         -3.1260    -0.1940     0.0060 ca         1 VFB      -0.073000
     11 CAK         -0.4850     0.4960    -0.0020 ca         1 VFB      -0.039200
     12 NAL          0.8990     0.4720    -0.0100 na         1 VFB       0.192300
     13 HN1          0.3500    -2.6410    -0.0510 hn         1 VFB       0.361700
     14 HAB         -2.4960    -2.2590    -0.0260 ha         1 VFB       0.170000
     15 HAC         -3.5040     1.9180     0.0350 ha         1 VFB       0.172000
     16 HAE         -1.1050     2.5610     0.0280 ha         1 VFB       0.183000
     17 HAF          3.9860     0.9440    -0.0160 h5         1 VFB       0.116100
     18 HNAH         3.2990    -1.5210    -0.0490 hn         1 VFB       0.372700
     19 HAJ         -4.1790    -0.4420     0.0100 ha         1 VFB       0.171000
@<TRIPOS>BOND
     1     1     4 1   
     2     1     7 2   
     3     1    13 1   
     4     2     4 ar  
     5     2    10 ar  
     6     2    14 1   
     7     3     5 ar  
     8     3    10 ar  
     9     3    15 1   
    10     4    11 ar  
    11     5    11 ar  
    12     5    16 1   
    13     6     8 1   
    14     6     9 2   
    15     6    17 1   
    16     7     8 1   
    17     7    12 1   
    18     8    18 1   
    19     9    12 1   
    20    10    19 1   
    21    11    12 1   
@<TRIPOS>SUBSTRUCTURE
     1 VFB         1 TEMP              0 ****  ****    0 ROOT
