@<TRIPOS>MOLECULE
VFB
   19    21     1     0     0
SMALL
No Charge or Current Charge


@<TRIPOS>ATOM
      1 N1           0.3770    -1.6200    -0.2980 na         1 VFB      -0.221800
      2 CAB         -2.0380    -1.1970     0.2400 ca         1 VFB      -0.085000
      3 CAC         -2.6670     1.1700     0.0660 ca         1 VFB      -0.078000
      4 CAD         -0.7400    -0.8270    -0.1390 ca         1 VFB      -0.044200
      5 CAE         -1.3480     1.5080    -0.3110 ca         1 VFB      -0.043000
      6 CAF          2.6930     0.5500     0.3170 cc         1 VFB       0.468400
      7 CAG          1.3400    -0.7770    -0.8270 cz         1 VFB       0.007000
      8 NAH          2.4580    -0.7730    -0.0450 na         1 VFB      -0.317500
      9 NAI          1.7600     1.3670    -0.0640 n2         1 VFB      -0.409800
     10 CAJ         -3.0100    -0.1770     0.3400 ca         1 VFB      -0.055000
     11 CAK         -0.4090     0.4700    -0.4060 ca         1 VFB      -0.039200
     12 NAL          0.9280     0.5300    -0.7340 na         1 VFB       0.243000
     13 HN1          0.4640    -2.6190    -0.1330 hn         1 VFB       0.412000
     14 HAB         -2.2900    -2.2340     0.4520 ha         1 VFB       0.152000
     15 HAC         -3.4220     1.9490     0.1490 ha         1 VFB       0.154000
     16 HAE         -1.0690     2.5390    -0.5190 ha         1 VFB       0.165000
     17 HAF          3.5550     0.8490     0.9020 h5         1 VFB       0.116100
     18 HNAH         3.0410    -1.5670     0.1900 hn         1 VFB       0.423000
     19 HAJ         -4.0280    -0.4280     0.6310 ha         1 VFB       0.153000
@<TRIPOS>BOND
     1     1     4 1   
     2     1     7 2   
     3     1    13 1   
     4     2     4 ar  
     5     2    10 ar  
     6     2    14 1   
     7     3     5 ar  
     8     3    10 ar  
     9     3    15 1   
    10     4    11 ar  
    11     5    11 ar  
    12     5    16 1   
    13     6     8 1   
    14     6     9 2   
    15     6    17 1   
    16     7     8 1   
    17     7    12 1   
    18     8    18 1   
    19     9    12 1   
    20    10    19 1   
    21    11    12 1   
@<TRIPOS>SUBSTRUCTURE
     1 VFB         1 TEMP              0 ****  ****    0 ROOT
