@<TRIPOS>MOLECULE
VFC
   52    56     1     0     0
SMALL
No Charge or Current Charge


@<TRIPOS>ATOM
      1 F32         -4.8870    -4.9790     1.1490 f          1 VFC      -0.180000
      2 C29         -4.6660    -3.6750     0.8750 ca         1 VFC       0.208000
      3 C28         -3.3420    -3.1890     0.8140 ca         1 VFC      -0.194000
      4 C26         -3.0930    -1.8290     0.5300 ca         1 VFC       0.013000
      5 C24         -4.2050    -0.9930     0.3130 ca         1 VFC      -0.213900
      6 C27         -5.7580    -2.8160     0.6540 ca         1 VFC      -0.189000
      7 C25         -5.4800    -1.4700     0.3740 ca         1 VFC      -0.026200
      8 N30         -6.3400    -0.4210     0.1190 na         1 VFC       0.087600
      9 C33         -7.8070    -0.5290     0.0940 c3         1 VFC       0.080900
     10 N31         -5.6470     0.7670    -0.1130 nc         1 VFC      -0.522100
     11 C23         -4.3470     0.4300     0.0020 cd         1 VFC       0.302900
     12 C5          -3.2480     1.4220    -0.1750 ca         1 VFC       0.289700
     13 N3          -1.9470     1.0130    -0.0440 nb         1 VFC      -0.577000
     14 C6          -3.5650     2.7870    -0.4780 ca         1 VFC       0.333900
     15 N4          -2.6130     3.7570    -0.6550 nb         1 VFC      -0.642000
     16 C2          -1.3410     3.3190    -0.5190 ca         1 VFC       0.309500
     17 N7          -0.1460     4.0070    -0.6260 na         1 VFC      -0.308400
     18 C8           0.9640     3.1590    -0.4070 cc         1 VFC      -0.102100
     19 C9           0.4010     1.9040    -0.1580 cd         1 VFC      -0.322000
     20 C1          -1.0370     1.9940    -0.2250 ca         1 VFC       0.348800
     21 C10          1.1600     0.6640     0.1340 c          1 VFC       0.650300
     22 O11          0.6550    -0.4270     0.3490 o          1 VFC      -0.591100
     23 N12          2.5220     0.8480     0.1360 ns         1 VFC      -0.509900
     24 C13          3.5330    -0.2030     0.3930 c3         1 VFC       0.046700
     25 C22          3.5870    -0.5650     1.8980 c3         1 VFC      -0.110100
     26 C14          4.9320     0.2100    -0.1690 c          1 VFC       0.607100
     27 O21          5.0480     1.3470    -0.6330 o          1 VFC      -0.609100
     28 N15          5.8810    -0.8570    -0.0320 nj         1 VFC      -0.425800
     29 C17          7.0360    -0.1300     0.6010 cy         1 VFC       0.116500
     30 C18          7.9110    -0.6500    -0.5870 cy         1 VFC      -0.052600
     31 C16          6.5680    -0.8260    -1.3700 cy         1 VFC       0.116500
     32 C19          8.6740    -1.8780    -0.3340 c1         1 VFC       0.302900
     33 N20          9.3120    -2.8350    -0.1460 n1         1 VFC      -0.435000
     34 H28         -2.5110    -3.8670     0.9880 ha         1 VFC       0.135000
     35 H27         -6.7770    -3.1910     0.7010 ha         1 VFC       0.135000
     36 H26         -2.0700    -1.4610     0.4850 ha         1 VFC       0.161000
     37 H331        -8.1640    -0.8730     1.0720 h1         1 VFC       0.056033
     38 H332        -8.2490     0.4490    -0.1310 h1         1 VFC       0.056033
     39 H333        -8.1070    -1.2480    -0.6770 h1         1 VFC       0.056033
     40 H6          -4.5990     3.1140    -0.5820 h4         1 VFC       0.049100
     41 H7          -0.0940     4.9970    -0.8370 hn         1 VFC       0.370000
     42 H8           1.9930     3.5130    -0.4480 h4         1 VFC       0.226000
     43 H12          2.8570     1.7750    -0.0910 hn         1 VFC       0.332500
     44 H13          3.2380    -1.1030    -0.1620 h1         1 VFC       0.080700
     45 H221         3.9180     0.2960     2.4910 hc         1 VFC       0.051700
     46 H222         2.6010    -0.8740     2.2630 hc         1 VFC       0.051700
     47 H223         4.2820    -1.3940     2.0790 hc         1 VFC       0.051700
     48 H171         6.9820     0.9640     0.6650 h1         1 VFC       0.069950
     49 H172         7.3130    -0.5410     1.5790 h1         1 VFC       0.069950
     50 H161         6.4850    -1.7750    -1.9130 h1         1 VFC       0.069950
     51 H162         6.3390     0.0040    -2.0490 h1         1 VFC       0.069950
     52 H18          8.6040     0.0830    -1.0100 hc         1 VFC       0.097700
@<TRIPOS>BOND
     1     1     2 1   
     2     2     3 ar  
     3     2     6 ar  
     4     3     4 ar  
     5     3    34 1   
     6     4     5 ar  
     7     4    36 1   
     8     5     7 ar  
     9     5    11 1   
    10     6     7 ar  
    11     6    35 1   
    12     7     8 1   
    13     8     9 1   
    14     8    10 1   
    15     9    37 1   
    16     9    38 1   
    17     9    39 1   
    18    10    11 2   
    19    11    12 1   
    20    12    13 ar  
    21    12    14 ar  
    22    13    20 ar  
    23    14    15 ar  
    24    14    40 1   
    25    15    16 ar  
    26    16    17 1   
    27    16    20 ar  
    28    17    18 1   
    29    17    41 1   
    30    18    19 2   
    31    18    42 1   
    32    19    20 1   
    33    19    21 1   
    34    21    22 2   
    35    21    23 1   
    36    23    24 1   
    37    23    43 1   
    38    24    25 1   
    39    24    26 1   
    40    24    44 1   
    41    25    45 1   
    42    25    46 1   
    43    25    47 1   
    44    26    27 2   
    45    26    28 1   
    46    28    29 1   
    47    28    31 1   
    48    29    30 1   
    49    29    48 1   
    50    29    49 1   
    51    30    31 1   
    52    30    32 1   
    53    30    52 1   
    54    31    50 1   
    55    31    51 1   
    56    32    33 3   
@<TRIPOS>SUBSTRUCTURE
     1 VFC         1 TEMP              0 ****  ****    0 ROOT
