@<TRIPOS>MOLECULE
VFC
   52    56     1     0     0
SMALL
bcc


@<TRIPOS>ATOM
      1 F32         -4.6160    -5.0130     0.6240 f          1 VFC      -0.144900
      2 C29         -4.4430    -3.6910     0.4640 ca         1 VFC       0.172900
      3 C28         -3.1260    -3.2200     0.3540 ca         1 VFC      -0.212000
      4 C26         -2.8910    -1.8740     0.1930 ca         1 VFC      -0.005000
      5 C24         -3.9890    -1.0040     0.1450 ca         1 VFC      -0.213900
      6 C27         -5.5520    -2.8880     0.4170 ca         1 VFC      -0.207000
      7 C25         -5.2920    -1.5240     0.2500 ca         1 VFC      -0.026200
      8 N30         -6.1380    -0.4710     0.1530 na         1 VFC       0.116900
      9 C33         -7.5730    -0.4810     0.2830 c3         1 VFC       0.051600
     10 N31         -5.4780     0.6760     0.0120 nc         1 VFC      -0.522100
     11 C23         -4.1940     0.4000    -0.0030 cd         1 VFC       0.302900
     12 C5          -3.1890     1.4460    -0.1550 ca         1 VFC       0.289700
     13 N3          -1.9210     1.0650    -0.0860 nb         1 VFC      -0.577000
     14 C6          -3.5580     2.7920    -0.3610 ca         1 VFC       0.333900
     15 N4          -2.6700     3.7620    -0.4930 nb         1 VFC      -0.642000
     16 C2          -1.4160     3.3630    -0.4210 ca         1 VFC       0.309500
     17 N7          -0.2910     4.1230    -0.5150 na         1 VFC      -0.258100
     18 C8           0.7940     3.3220    -0.3810 cc         1 VFC      -0.052100
     19 C9           0.4130     2.0130    -0.1940 cd         1 VFC      -0.322000
     20 C1          -1.0160     2.0230    -0.2250 ca         1 VFC       0.348800
     21 C10          1.2770     0.8330    -0.0430 c          1 VFC       0.717300
     22 O11          0.8690    -0.2980    -0.2740 o          1 VFC      -0.591100
     23 N12          2.5410     1.0840     0.3520 ns         1 VFC      -0.576900
     24 C13          3.5370     0.0540     0.4980 c3         1 VFC       0.046700
     25 C22          3.4330    -0.6720     1.8430 c3         1 VFC      -0.110100
     26 C14          4.9040     0.7150     0.3770 c          1 VFC       0.674100
     27 O21          5.0830     1.8970     0.6360 o          1 VFC      -0.609100
     28 N15          5.9030    -0.0880     0.0160 nj         1 VFC      -0.492800
     29 C17          7.2960     0.2430    -0.2210 cy         1 VFC       0.116500
     30 C18          7.4740    -1.1740    -0.8270 cy         1 VFC      -0.052600
     31 C16          5.9880    -1.4520    -0.4820 cy         1 VFC       0.116500
     32 C19          8.4410    -2.0240    -0.1660 c1         1 VFC       0.213700
     33 N20          9.2070    -2.6990     0.3640 n1         1 VFC      -0.345800
     34 H28         -2.3070    -3.9250     0.3990 ha         1 VFC       0.153000
     35 H27         -6.5510    -3.2940     0.5070 ha         1 VFC       0.153000
     36 H26         -1.8820    -1.4970     0.1060 ha         1 VFC       0.179000
     37 H331        -7.8760    -0.3990     1.3270 h1         1 VFC       0.056033
     38 H332        -7.9830     0.3560    -0.2750 h1         1 VFC       0.056033
     39 H333        -7.9720    -1.4040    -0.1290 h1         1 VFC       0.056033
     40 H6          -4.6030     3.0680    -0.4180 h4         1 VFC       0.049100
     41 H7          -0.2630     5.1190    -0.6700 hn         1 VFC       0.319700
     42 H8           1.7830     3.7480    -0.4540 h4         1 VFC       0.176000
     43 H12          2.8080     2.0100     0.6480 hn         1 VFC       0.332500
     44 H13          3.4070    -0.6720    -0.3090 h1         1 VFC       0.080700
     45 H221         3.5520     0.0290     2.6690 hc         1 VFC       0.051700
     46 H222         2.4580    -1.1490     1.9290 hc         1 VFC       0.051700
     47 H223         4.1920    -1.4490     1.9410 hc         1 VFC       0.051700
     48 H171         7.4490     1.0530    -0.9330 h1         1 VFC       0.069950
     49 H172         7.8670     0.4390     0.6860 h1         1 VFC       0.069950
     50 H161         5.8320    -2.2200     0.2760 h1         1 VFC       0.069950
     51 H162         5.3610    -1.6610    -1.3490 h1         1 VFC       0.069950
     52 H18          7.6770    -1.1660    -1.8970 hc         1 VFC       0.097700
@<TRIPOS>BOND
     1     1     2 1   
     2     2     3 ar  
     3     2     6 ar  
     4     3     4 ar  
     5     3    34 1   
     6     4     5 ar  
     7     4    36 1   
     8     5     7 ar  
     9     5    11 1   
    10     6     7 ar  
    11     6    35 1   
    12     7     8 1   
    13     8     9 1   
    14     8    10 1   
    15     9    37 1   
    16     9    38 1   
    17     9    39 1   
    18    10    11 2   
    19    11    12 1   
    20    12    13 ar  
    21    12    14 ar  
    22    13    20 ar  
    23    14    15 ar  
    24    14    40 1   
    25    15    16 ar  
    26    16    17 1   
    27    16    20 ar  
    28    17    18 1   
    29    17    41 1   
    30    18    19 2   
    31    18    42 1   
    32    19    20 1   
    33    19    21 1   
    34    21    22 2   
    35    21    23 1   
    36    23    24 1   
    37    23    43 1   
    38    24    25 1   
    39    24    26 1   
    40    24    44 1   
    41    25    45 1   
    42    25    46 1   
    43    25    47 1   
    44    26    27 2   
    45    26    28 1   
    46    28    29 1   
    47    28    31 1   
    48    29    30 1   
    49    29    48 1   
    50    29    49 1   
    51    30    31 1   
    52    30    32 1   
    53    30    52 1   
    54    31    50 1   
    55    31    51 1   
    56    32    33 3   
@<TRIPOS>SUBSTRUCTURE
     1 VFC         1 TEMP              0 ****  ****    0 ROOT
