@<TRIPOS>MOLECULE
VFD
   66    70     1     0     0
SMALL
No Charge or Current Charge


@<TRIPOS>ATOM
      1 N           27.7290    -4.6750     6.6830 n          1 VFD      -0.353800
      2 CA          27.1120    -4.9140     5.3290 c6         1 VFD      -0.049300
      3 C           26.3170    -3.7020     4.7410 c          1 VFD       0.714000
      4 O           26.5940    -3.3930     3.5900 o          1 VFD      -0.708000
      5 CB          26.2580    -6.2020     5.2840 c6         1 VFD      -0.031100
      6 CG          25.2050    -6.2480     6.3880 ca         1 VFD      -0.001300
      7 CD1         23.9580    -6.8970     6.1920 ca         1 VFD       0.055100
      8 CD2         25.5170    -5.6480     7.6200 ca         1 VFD      -0.096300
      9 CAA         20.7760    -7.5920     8.1360 c3         1 VFD       0.151900
     10 CAC         22.9970    -6.9020     7.2520 ca         1 VFD       0.107100
     11 CAG         26.8930    -5.0110     7.8750 c6         1 VFD       0.146300
     12 CAN         28.9700    -4.0080     6.8720 c          1 VFD       0.617100
     13 CAP         29.8030    -3.5500     5.6400 c3         1 VFD      -0.057100
     14 CAQ         30.6270    -2.2870     5.9240 ca         1 VFD      -0.048300
     15 CAR         31.8790    -2.3630     6.5710 ca         1 VFD      -0.093250
     16 CAS         32.6290    -1.1990     6.8170 ca         1 VFD      -0.119000
     17 CAT         32.1340     0.0540     6.4190 ca         1 VFD      -0.121500
     18 CAU         30.8860     0.1420     5.7790 ca         1 VFD      -0.119000
     19 CAV         30.1360    -1.0230     5.5320 ca         1 VFD      -0.093250
     20 CAW         30.6580    -4.6890     5.0650 ca         1 VFD      -0.048300
     21 CAX         30.8830    -4.7390     3.6740 ca         1 VFD      -0.093250
     22 CAY         31.6410    -5.7800     3.1090 ca         1 VFD      -0.119000
     23 CAZ         32.1850    -6.7810     3.9300 ca         1 VFD      -0.121500
     24 CBA         31.9730    -6.7390     5.3170 ca         1 VFD      -0.119000
     25 CBB         31.2140    -5.7000     5.8840 ca         1 VFD      -0.093250
     26 CBC         24.5730    -5.6630     8.6580 ca         1 VFD      -0.081000
     27 CBD         23.3240    -6.2730     8.4750 ca         1 VFD      -0.205000
     28 CBF         22.6180    -8.2890     4.5820 c3         1 VFD       0.203900
     29 CBG         22.8540    -8.8460     3.1850 ca         1 VFD      -0.077300
     30 CBH         22.8810    -7.9800     2.0720 ca         1 VFD      -0.085000
     31 CBI         23.1110    -8.4900     0.7820 ca         1 VFD      -0.121500
     32 CBJ         23.3120    -9.8700     0.5970 ca         1 VFD      -0.113000
     33 CBK         23.2850   -10.7390     1.7020 ca         1 VFD      -0.121500
     34 CBL         23.0580   -10.2300     2.9930 ca         1 VFD      -0.085000
     35 OAB         21.7630    -7.5110     7.0900 os         1 VFD      -0.334100
     36 OAO         29.4230    -3.8980     8.0090 o          1 VFD      -0.645100
     37 OBE         23.7680    -7.5110     4.9550 os         1 VFD      -0.336100
     38 OXX         25.8920    -2.8710     5.5310 o          1 VFD      -0.708000
     39 H1          27.9260    -5.1050     4.6170 h1         1 VFD       0.043700
     40 H2          25.8030    -6.2840     4.2880 hc         1 VFD       0.060700
     41 H3          26.9160    -7.0760     5.3910 hc         1 VFD       0.060700
     42 H4          19.8900    -8.1310     7.7770 h1         1 VFD       0.030367
     43 H5          21.1740    -8.1330     9.0050 h1         1 VFD       0.030367
     44 H6          20.4590    -6.5890     8.4530 h1         1 VFD       0.030367
     45 H7          27.4690    -5.6910     8.5220 h1         1 VFD       0.071200
     46 H8          26.7380    -4.0850     8.4510 h1         1 VFD       0.071200
     47 H9          29.0860    -3.3080     4.8520 hc         1 VFD       0.089700
     48 H10         32.2750    -3.3250     6.8890 ha         1 VFD       0.119000
     49 H11         33.5930    -1.2690     7.3170 ha         1 VFD       0.103000
     50 H12         32.7150     0.9550     6.6090 ha         1 VFD       0.100000
     51 H13         30.5000     1.1130     5.4730 ha         1 VFD       0.103000
     52 H14         29.1720    -0.9400     5.0340 ha         1 VFD       0.119000
     53 H15         30.4660    -3.9700     3.0250 ha         1 VFD       0.119000
     54 H16         31.8050    -5.8090     2.0340 ha         1 VFD       0.103000
     55 H17         32.7710    -7.5870     3.4930 ha         1 VFD       0.100000
     56 H18         32.3960    -7.5130     5.9560 ha         1 VFD       0.103000
     57 H19         31.0660    -5.6880     6.9610 ha         1 VFD       0.119000
     58 H20         24.8100    -5.2030     9.6150 ha         1 VFD       0.105000
     59 H21         22.6250    -6.2550     9.3060 ha         1 VFD       0.103000
     60 H22         21.7130    -7.6670     4.5700 h1         1 VFD       0.034200
     61 H23         22.4680    -9.1220     5.2830 h1         1 VFD       0.034200
     62 H24         22.7290    -6.9090     2.2100 ha         1 VFD       0.119000
     63 H25         23.1340    -7.8150    -0.0720 ha         1 VFD       0.104500
     64 H26         23.4900   -10.2650    -0.4010 ha         1 VFD       0.101000
     65 H27         23.4410   -11.8080     1.5600 ha         1 VFD       0.104500
     66 H28         23.0430   -10.9100     3.8430 ha         1 VFD       0.119000
@<TRIPOS>BOND
     1     1     2 1   
     2     1    11 1   
     3     1    12 1   
     4     2     3 1   
     5     2     5 1   
     6     2    39 1   
     7     3     4 1   
     8     3    38 1   
     9     5     6 1   
    10     5    40 1   
    11     5    41 1   
    12     6     7 ar  
    13     6     8 ar  
    14     7    10 ar  
    15     7    37 1   
    16     8    11 1   
    17     8    26 ar  
    18     9    35 1   
    19     9    42 1   
    20     9    43 1   
    21     9    44 1   
    22    10    27 ar  
    23    10    35 1   
    24    11    45 1   
    25    11    46 1   
    26    12    13 1   
    27    12    36 2   
    28    13    14 1   
    29    13    20 1   
    30    13    47 1   
    31    14    15 ar  
    32    14    19 ar  
    33    15    16 ar  
    34    15    48 1   
    35    16    17 ar  
    36    16    49 1   
    37    17    18 ar  
    38    17    50 1   
    39    18    19 ar  
    40    18    51 1   
    41    19    52 1   
    42    20    21 ar  
    43    20    25 ar  
    44    21    22 ar  
    45    21    53 1   
    46    22    23 ar  
    47    22    54 1   
    48    23    24 ar  
    49    23    55 1   
    50    24    25 ar  
    51    24    56 1   
    52    25    57 1   
    53    26    27 ar  
    54    26    58 1   
    55    27    59 1   
    56    28    29 1   
    57    28    37 1   
    58    28    60 1   
    59    28    61 1   
    60    29    30 ar  
    61    29    34 ar  
    62    30    31 ar  
    63    30    62 1   
    64    31    32 ar  
    65    31    63 1   
    66    32    33 ar  
    67    32    64 1   
    68    33    34 ar  
    69    33    65 1   
    70    34    66 1   
@<TRIPOS>SUBSTRUCTURE
     1 VFD         1 TEMP              0 ****  ****    0 ROOT
