@<TRIPOS>MOLECULE
VFD
   66    70     1     0     0
SMALL
abcg2


@<TRIPOS>ATOM
      1 N           27.0220    -3.5110     6.4740 n          1 VFD      -0.353800
      2 CA          26.4580    -3.5970     5.1380 c6         1 VFD      -0.049300
      3 C           25.5290    -2.3740     4.8500 c          1 VFD       0.714000
      4 O           24.5290    -2.5870     4.1450 o          1 VFD      -0.708000
      5 CB          25.8070    -4.9560     4.9510 c6         1 VFD      -0.031100
      6 CG          24.9290    -5.3230     6.1120 ca         1 VFD      -0.001300
      7 CD1         24.0190    -6.3680     5.9910 ca         1 VFD       0.055100
      8 CD2         25.0130    -4.6240     7.3170 ca         1 VFD      -0.096300
      9 CAA         21.4150    -8.1030     7.8300 c3         1 VFD       0.151900
     10 CAC         23.1640    -6.7140     7.0430 ca         1 VFD       0.107100
     11 CAG         26.0250    -3.5230     7.5240 c6         1 VFD       0.146300
     12 CAN         28.3240    -3.3760     6.7910 c          1 VFD       0.617100
     13 CAP         29.3360    -3.5150     5.6450 c3         1 VFD      -0.057100
     14 CAQ         30.7110    -3.0590     6.0790 ca         1 VFD      -0.048300
     15 CAR         31.5760    -3.8770     6.8000 ca         1 VFD      -0.093250
     16 CAS         32.8290    -3.4200     7.1810 ca         1 VFD      -0.119000
     17 CAT         33.2390    -2.1350     6.8480 ca         1 VFD      -0.121500
     18 CAU         32.3840    -1.3110     6.1300 ca         1 VFD      -0.119000
     19 CAV         31.1310    -1.7740     5.7500 ca         1 VFD      -0.093250
     20 CAW         29.3230    -4.9260     5.0920 ca         1 VFD      -0.048300
     21 CAX         29.4790    -5.1330     3.7240 ca         1 VFD      -0.093250
     22 CAY         29.4490    -6.4130     3.1880 ca         1 VFD      -0.119000
     23 CAZ         29.2670    -7.5110     4.0190 ca         1 VFD      -0.121500
     24 CBA         29.1210    -7.3170     5.3850 ca         1 VFD      -0.119000
     25 CBB         29.1490    -6.0350     5.9170 ca         1 VFD      -0.093250
     26 CBC         24.1580    -4.9650     8.3560 ca         1 VFD      -0.081000
     27 CBD         23.2320    -5.9900     8.2290 ca         1 VFD      -0.205000
     28 CBF         24.8050    -8.2080     4.7720 c3         1 VFD       0.203900
     29 CBG         24.8200    -8.7110     3.3620 ca         1 VFD      -0.077300
     30 CBH         23.8790    -9.6410     2.9320 ca         1 VFD      -0.085000
     31 CBI         23.8700   -10.0790     1.6140 ca         1 VFD      -0.121500
     32 CBJ         24.8040    -9.5870     0.7120 ca         1 VFD      -0.113000
     33 CBK         25.7460    -8.6560     1.1330 ca         1 VFD      -0.121500
     34 CBL         25.7510    -8.2200     2.4500 ca         1 VFD      -0.085000
     35 OAB         22.3280    -7.7450     6.8150 os         1 VFD      -0.334100
     36 OAO         28.7070    -3.1950     7.9390 o          1 VFD      -0.645100
     37 OBE         23.9460    -7.0650     4.8200 os         1 VFD      -0.336100
     38 OXX         25.9190    -1.2880     5.3140 o          1 VFD      -0.708000
     39 H1          27.2560    -3.5170     4.4000 h1         1 VFD       0.043700
     40 H2          25.2320    -4.9540     4.0260 hc         1 VFD       0.060700
     41 H3          26.5880    -5.7130     4.8250 hc         1 VFD       0.060700
     42 H4          20.8340    -8.9370     7.4430 h1         1 VFD       0.030367
     43 H5          21.9210    -8.4220     8.7450 h1         1 VFD       0.030367
     44 H6          20.7330    -7.2830     8.0740 h1         1 VFD       0.030367
     45 H7          26.5210    -3.6670     8.4810 h1         1 VFD       0.071200
     46 H8          25.5260    -2.5500     7.5750 h1         1 VFD       0.071200
     47 H9          29.0320    -2.8410     4.8390 hc         1 VFD       0.089700
     48 H10         31.2820    -4.8850     7.0630 ha         1 VFD       0.119000
     49 H11         33.4890    -4.0710     7.7390 ha         1 VFD       0.103000
     50 H12         34.2180    -1.7820     7.1440 ha         1 VFD       0.100000
     51 H13         32.6920    -0.3090     5.8610 ha         1 VFD       0.103000
     52 H14         30.4710    -1.1250     5.1850 ha         1 VFD       0.119000
     53 H15         29.6100    -4.2800     3.0680 ha         1 VFD       0.119000
     54 H16         29.5610    -6.5520     2.1200 ha         1 VFD       0.103000
     55 H17         29.2340    -8.5100     3.6030 ha         1 VFD       0.100000
     56 H18         28.9780    -8.1660     6.0420 ha         1 VFD       0.103000
     57 H19         29.0220    -5.9070     6.9860 ha         1 VFD       0.119000
     58 H20         24.2130    -4.4250     9.2940 ha         1 VFD       0.105000
     59 H21         22.5870    -6.2230     9.0660 ha         1 VFD       0.103000
     60 H22         24.4430    -8.9810     5.4560 h1         1 VFD       0.034200
     61 H23         25.8170    -7.9330     5.0870 h1         1 VFD       0.034200
     62 H24         23.1520   -10.0320     3.6340 ha         1 VFD       0.119000
     63 H25         23.1350   -10.8060     1.2920 ha         1 VFD       0.104500
     64 H26         24.8000    -9.9300    -0.3140 ha         1 VFD       0.101000
     65 H27         26.4790    -8.2720     0.4350 ha         1 VFD       0.104500
     66 H28         26.4920    -7.4990     2.7770 ha         1 VFD       0.119000
@<TRIPOS>BOND
     1     1     2 1   
     2     1    11 1   
     3     1    12 1   
     4     2     3 1   
     5     2     5 1   
     6     2    39 1   
     7     3     4 1   
     8     3    38 1   
     9     5     6 1   
    10     5    40 1   
    11     5    41 1   
    12     6     7 ar  
    13     6     8 ar  
    14     7    10 ar  
    15     7    37 1   
    16     8    11 1   
    17     8    26 ar  
    18     9    35 1   
    19     9    42 1   
    20     9    43 1   
    21     9    44 1   
    22    10    27 ar  
    23    10    35 1   
    24    11    45 1   
    25    11    46 1   
    26    12    13 1   
    27    12    36 2   
    28    13    14 1   
    29    13    20 1   
    30    13    47 1   
    31    14    15 ar  
    32    14    19 ar  
    33    15    16 ar  
    34    15    48 1   
    35    16    17 ar  
    36    16    49 1   
    37    17    18 ar  
    38    17    50 1   
    39    18    19 ar  
    40    18    51 1   
    41    19    52 1   
    42    20    21 ar  
    43    20    25 ar  
    44    21    22 ar  
    45    21    53 1   
    46    22    23 ar  
    47    22    54 1   
    48    23    24 ar  
    49    23    55 1   
    50    24    25 ar  
    51    24    56 1   
    52    25    57 1   
    53    26    27 ar  
    54    26    58 1   
    55    27    59 1   
    56    28    29 1   
    57    28    37 1   
    58    28    60 1   
    59    28    61 1   
    60    29    30 ar  
    61    29    34 ar  
    62    30    31 ar  
    63    30    62 1   
    64    31    32 ar  
    65    31    63 1   
    66    32    33 ar  
    67    32    64 1   
    68    33    34 ar  
    69    33    65 1   
    70    34    66 1   
@<TRIPOS>SUBSTRUCTURE
     1 VFD         1 TEMP              0 ****  ****    0 ROOT
