@<TRIPOS>MOLECULE
VFE
   49    51     1     0     0
SMALL
abcg2


@<TRIPOS>ATOM
      1 C25         -8.1610    37.4360    21.1920 ca         1 VFE      -0.095000
      2 C26         -7.4120    38.3930    21.8600 ca         1 VFE      -0.111000
      3 C9          -9.9590    31.2610    19.2190 ca         1 VFE      -0.078000
      4 C13         -8.4030    32.7140    20.3100 ca         1 VFE      -0.078000
      5 C10         -9.2640    31.3950    18.0270 ca         1 VFE      -0.108500
      6 C12         -7.7070    32.8720    19.1260 ca         1 VFE      -0.108500
      7 C24         -9.2330    36.8150    21.8140 ca         1 VFE      -0.105000
      8 C27         -7.7460    38.7340    23.1620 ca         1 VFE      -0.093000
      9 C17         -7.0620    32.4410    14.7370 cc         1 VFE       0.521900
     10 C15         -6.1170    32.5590    16.5880 cd         1 VFE       0.424400
     11 C8          -9.5440    31.9180    20.3710 ca         1 VFE      -0.115300
     12 C11         -8.1410    32.2080    17.9840 ca         1 VFE       0.019800
     13 C23         -9.5820    37.1430    23.1240 ca         1 VFE      -0.093000
     14 C28         -8.8180    38.1120    23.7780 ca         1 VFE       0.123000
     15 C3         -11.8990    33.8190    19.6510 c          1 VFE       0.571100
     16 C19        -10.7070    33.9790    22.7170 c          1 VFE       0.615100
     17 C1         -12.3400    33.8630    17.2560 c3         1 VFE       0.089300
     18 C7         -10.3480    31.8280    21.6420 c3         1 VFE       0.139300
     19 C5         -12.2840    33.1850    20.9880 c3         1 VFE       0.020000
     20 C21        -11.5890    35.2160    22.8690 c3         1 VFE      -0.077400
     21 N16         -5.8510    32.6210    15.3060 nc         1 VFE      -0.695000
     22 N18         -8.0440    32.2750    15.5860 nd         1 VFE      -0.537800
     23 N14         -7.4310    32.3560    16.7740 na         1 VFE       0.035500
     24 N2         -12.5720    33.3650    18.5920 ns         1 VFE      -0.498900
     25 N6         -11.1530    33.0230    21.8670 n          1 VFE      -0.397800
     26 O4         -11.0600    34.7060    19.5860 o          1 VFE      -0.600100
     27 O20         -9.6810    33.8570    23.3600 o          1 VFE      -0.566100
     28 S22        -10.9280    36.4360    24.0090 ss         1 VFE      -0.068000
     29 CL          -9.2230    38.5530    25.4050 cl         1 VFE      -0.193000
     30 H1          -7.9130    37.1630    20.1740 ha         1 VFE       0.118000
     31 H2          -6.5740    38.8760    21.3760 ha         1 VFE       0.117000
     32 H3         -10.8380    30.6290    19.2480 ha         1 VFE       0.125000
     33 H4          -8.0640    33.2390    21.1940 ha         1 VFE       0.125000
     34 H5          -9.5950    30.8710    17.1410 ha         1 VFE       0.132500
     35 H6          -6.8430    33.5230    19.0940 ha         1 VFE       0.132500
     36 H7          -9.7990    36.0830    21.2550 ha         1 VFE       0.137000
     37 H8          -7.1760    39.4800    23.7000 ha         1 VFE       0.127000
     38 H9          -7.2240    32.4350    13.6690 h5         1 VFE       0.065100
     39 H10         -5.4070    32.6370    17.3970 h5         1 VFE       0.069100
     40 H11        -13.0250    33.3620    16.5780 h1         1 VFE       0.046700
     41 H12        -12.5190    34.9360    17.1930 h1         1 VFE       0.046700
     42 H13        -11.3190    33.6630    16.9250 h1         1 VFE       0.046700
     43 H14        -11.0220    30.9710    21.5970 h1         1 VFE       0.070200
     44 H15         -9.6950    31.6820    22.5000 h1         1 VFE       0.070200
     45 H16        -13.0530    33.8080    21.4480 h1         1 VFE       0.065200
     46 H17        -12.7480    32.2080    20.8410 h1         1 VFE       0.065200
     47 H18        -11.8250    35.6770    21.9110 h1         1 VFE       0.095200
     48 H19        -12.5470    34.9310    23.3160 h1         1 VFE       0.095200
     49 H20        -13.2100    32.5950    18.7070 hn         1 VFE       0.313500
@<TRIPOS>BOND
     1     1     2 ar  
     2     1     7 ar  
     3     1    30 1   
     4     2     8 ar  
     5     2    31 1   
     6     3     5 ar  
     7     3    11 ar  
     8     3    32 1   
     9     4     6 ar  
    10     4    11 ar  
    11     4    33 1   
    12     5    12 ar  
    13     5    34 1   
    14     6    12 ar  
    15     6    35 1   
    16     7    13 ar  
    17     7    36 1   
    18     8    14 ar  
    19     8    37 1   
    20     9    21 1   
    21     9    22 2   
    22     9    38 1   
    23    10    21 2   
    24    10    23 1   
    25    10    39 1   
    26    11    18 1   
    27    12    23 1   
    28    13    14 ar  
    29    13    28 1   
    30    14    29 1   
    31    15    19 1   
    32    15    24 1   
    33    15    26 2   
    34    16    20 1   
    35    16    25 1   
    36    16    27 2   
    37    17    24 1   
    38    17    40 1   
    39    17    41 1   
    40    17    42 1   
    41    18    25 1   
    42    18    43 1   
    43    18    44 1   
    44    19    25 1   
    45    19    45 1   
    46    19    46 1   
    47    20    28 1   
    48    20    47 1   
    49    20    48 1   
    50    22    23 1   
    51    24    49 1   
@<TRIPOS>SUBSTRUCTURE
     1 VFE         1 TEMP              0 ****  ****    0 ROOT
