@<TRIPOS>MOLECULE
VFE
   49    51     1     0     0
SMALL
No Charge or Current Charge


@<TRIPOS>ATOM
      1 C25         -8.5390    36.1860    19.5280 ca         1 VFE      -0.095000
      2 C26         -7.2040    36.4180    19.8980 ca         1 VFE      -0.111000
      3 C9          -9.5440    32.3700    19.0640 ca         1 VFE      -0.078000
      4 C13         -8.0870    32.6440    20.9890 ca         1 VFE      -0.078000
      5 C10         -8.4860    32.7320    18.2120 ca         1 VFE      -0.108500
      6 C12         -7.0290    33.0070    20.1380 ca         1 VFE      -0.108500
      7 C24         -9.5670    36.3210    20.4770 ca         1 VFE      -0.105000
      8 C27         -6.8980    36.7830    21.2200 ca         1 VFE      -0.093000
      9 C17         -4.9770    34.1470    16.4090 cc         1 VFE       0.521900
     10 C15         -5.0030    32.6930    17.9490 cd         1 VFE       0.424400
     11 C8          -9.3510    32.3230    20.4570 ca         1 VFE      -0.115300
     12 C11         -7.2210    33.0500    18.7430 ca         1 VFE       0.019800
     13 C23         -9.2680    36.6830    21.8060 ca         1 VFE      -0.093000
     14 C28         -7.9240    36.9180    22.1710 ca         1 VFE       0.123000
     15 C3         -13.1070    33.6830    19.8500 c          1 VFE       0.571100
     16 C19        -10.9620    34.0750    22.6260 c          1 VFE       0.615100
     17 C1         -14.9200    34.0590    18.1490 c3         1 VFE       0.089300
     18 C7         -10.5070    31.9500    21.3780 c3         1 VFE       0.139300
     19 C5         -12.8030    33.0340    21.2190 c3         1 VFE       0.020000
     20 C21        -11.7100    35.4190    22.6640 c3         1 VFE      -0.077400
     21 N16         -4.2130    33.1710    16.9990 nc         1 VFE      -0.695000
     22 N18         -6.1960    34.3400    16.8880 nd         1 VFE      -0.537800
     23 N14         -6.1790    33.4180    17.8910 na         1 VFE       0.035500
     24 N2         -14.4040    33.5230    19.4120 ns         1 VFE      -0.498900
     25 N6         -11.3830    33.1050    21.6870 n          1 VFE      -0.397800
     26 O4         -12.2830    34.3080    19.1970 o          1 VFE      -0.600100
     27 O20         -9.9980    33.8690    23.3530 o          1 VFE      -0.566100
     28 S22        -10.5790    36.8430    23.0260 ss         1 VFE      -0.068000
     29 Cl          -7.4970    37.3720    23.8200 cl         1 VFE      -0.193000
     30 H1          -8.7770    35.9010    18.5060 ha         1 VFE       0.118000
     31 H2          -6.4100    36.3120    19.1630 ha         1 VFE       0.117000
     32 H3         -10.5170    32.1320    18.6390 ha         1 VFE       0.125000
     33 H4          -7.9250    32.6220    22.0650 ha         1 VFE       0.125000
     34 H5          -8.6500    32.7700    17.1380 ha         1 VFE       0.132500
     35 H6          -6.0640    33.2660    20.5690 ha         1 VFE       0.132500
     36 H7         -10.5940    36.1500    20.1680 ha         1 VFE       0.137000
     37 H8          -5.8650    36.9610    21.5080 ha         1 VFE       0.127000
     38 H9          -4.5630    34.7060    15.5770 h5         1 VFE       0.065100
     39 H10         -4.8110    31.8930    18.6550 h5         1 VFE       0.069100
     40 H11        -15.9770    33.7880    18.0390 h1         1 VFE       0.046700
     41 H12        -14.8240    35.1520    18.1440 h1         1 VFE       0.046700
     42 H13        -14.3500    33.6400    17.3090 h1         1 VFE       0.046700
     43 H14        -11.0940    31.1540    20.9010 h1         1 VFE       0.070200
     44 H15        -10.1130    31.5300    22.3140 h1         1 VFE       0.070200
     45 H16        -13.4620    33.5010    21.9620 h1         1 VFE       0.065200
     46 H17        -13.1100    31.9830    21.1530 h1         1 VFE       0.065200
     47 H18        -12.1870    35.5950    21.6950 h1         1 VFE       0.095200
     48 H19        -12.4890    35.3580    23.4310 h1         1 VFE       0.095200
     49 H20        -15.0340    32.9970    20.0090 hn         1 VFE       0.313500
@<TRIPOS>BOND
     1     1     2 ar  
     2     1     7 ar  
     3     1    30 1   
     4     2     8 ar  
     5     2    31 1   
     6     3     5 ar  
     7     3    11 ar  
     8     3    32 1   
     9     4     6 ar  
    10     4    11 ar  
    11     4    33 1   
    12     5    12 ar  
    13     5    34 1   
    14     6    12 ar  
    15     6    35 1   
    16     7    13 ar  
    17     7    36 1   
    18     8    14 ar  
    19     8    37 1   
    20     9    21 1   
    21     9    22 2   
    22     9    38 1   
    23    10    21 2   
    24    10    23 1   
    25    10    39 1   
    26    11    18 1   
    27    12    23 1   
    28    13    14 ar  
    29    13    28 1   
    30    14    29 1   
    31    15    19 1   
    32    15    24 1   
    33    15    26 2   
    34    16    20 1   
    35    16    25 1   
    36    16    27 2   
    37    17    24 1   
    38    17    40 1   
    39    17    41 1   
    40    17    42 1   
    41    18    25 1   
    42    18    43 1   
    43    18    44 1   
    44    19    25 1   
    45    19    45 1   
    46    19    46 1   
    47    20    28 1   
    48    20    47 1   
    49    20    48 1   
    50    22    23 1   
    51    24    49 1   
@<TRIPOS>SUBSTRUCTURE
     1 VFE         1 TEMP              0 ****  ****    0 ROOT
