@<TRIPOS>MOLECULE
VFF
   39    41     1     0     0
SMALL
abcg2


@<TRIPOS>ATOM
      1 C10          6.2460     8.5250    26.3260 cx         1 VFF      -0.115900
      2 C13          9.6090     5.2700    28.5670 cp         1 VFF      -0.119500
      3 C15          7.9150     6.3240    29.9200 ca         1 VFF      -0.067000
      4 C21         10.2000     6.3050    30.6670 ca         1 VFF      -0.067000
      5 C22         10.5580     5.5970    29.5340 ca         1 VFF      -0.092500
      6 C02         11.2660     2.8230    26.5060 ca         1 VFF       0.429900
      7 C04         10.1090     4.0900    25.0200 ca         1 VFF       0.445900
      8 C06          9.6040     4.8890    26.0880 ca         1 VFF      -0.200000
      9 C07          8.7700     5.9980    25.8060 cg         1 VFF      -0.095000
     10 C08          8.0560     6.9320    25.5280 c1         1 VFF      -0.118100
     11 C09          7.1880     8.0400    25.2510 cx         1 VFF      -0.052600
     12 C11          7.4120     9.3660    25.9350 cx         1 VFF      -0.115900
     13 C12         10.0300     4.5220    27.3620 cp         1 VFF       0.261500
     14 C14          8.2800     5.6330    28.7780 ca         1 VFF      -0.092500
     15 C16          8.8710     6.6770    30.8690 ca         1 VFF      -0.133600
     16 C19          9.1300     8.5050    34.0440 c3         1 VFF       0.153900
     17 N03         10.9230     3.0670    25.2420 nb         1 VFF      -0.340000
     18 N05          9.7710     4.3550    23.7550 nv         1 VFF      -1.075900
     19 N23         10.8610     3.5080    27.5780 nb         1 VFF      -0.288000
     20 O18          9.4330     7.7580    32.8660 os         1 VFF      -0.440100
     21 O20          7.2800     7.7380    32.2840 o          1 VFF      -0.490000
     22 H1           6.2810     8.0170    27.2810 hc         1 VFF       0.076450
     23 H2           5.2560     8.8310    26.0120 hc         1 VFF       0.076450
     24 H3           6.8780     6.5880    30.0710 ha         1 VFF       0.132500
     25 H4          10.9630     6.5600    31.3890 ha         1 VFF       0.132500
     26 H5          11.5910     5.3070    29.3900 ha         1 VFF       0.129000
     27 H6           6.8170     8.0830    24.2320 hc         1 VFF       0.088700
     28 H7           8.2440     9.4370    26.6230 hc         1 VFF       0.076450
     29 H8           7.2320    10.2560    25.3470 hc         1 VFF       0.076450
     30 H9           7.5200     5.3630    28.0590 ha         1 VFF       0.129000
     31 H10         10.0780     8.6600    34.5500 h1         1 VFF       0.048367
     32 H11          8.6880     9.4700    33.7990 h1         1 VFF       0.048367
     33 H12          8.4550     7.9560    34.7000 h1         1 VFF       0.048367
     34 H13         12.5380     1.3370    25.9460 hn         1 VFF       0.497000
     35 H14         12.4900     1.6550    27.6330 hn         1 VFF       0.497000
     36 H15         10.1600     3.8060    23.0080 hn         1 VFF       0.504000
     37 H16          9.1790     5.1320    23.5210 hn         1 VFF       0.504000
     38 N01         12.0720     1.7680    26.7260 nv         1 VFF      -1.059900
     39 C17          8.4290     7.4390    32.0660 c          1 VFF       0.605700
@<TRIPOS>BOND
     1     1    11 1   
     2     1    12 1   
     3     1    22 1   
     4     1    23 1   
     5     2     5 ar  
     6     2    13 1   
     7     2    14 ar  
     8     3    14 ar  
     9     3    15 ar  
    10     3    24 1   
    11     4     5 ar  
    12     4    15 ar  
    13     4    25 1   
    14     5    26 1   
    15     6    17 ar  
    16     6    19 ar  
    17     6    38 1   
    18     7     8 ar  
    19     7    17 ar  
    20     7    18 1   
    21     8     9 1   
    22     8    13 ar  
    23     9    10 3   
    24    10    11 1   
    25    11    12 1   
    26    11    27 1   
    27    12    28 1   
    28    12    29 1   
    29    13    19 ar  
    30    14    30 1   
    31    15    39 1   
    32    16    20 1   
    33    16    31 1   
    34    16    32 1   
    35    16    33 1   
    36    18    36 1   
    37    18    37 1   
    38    20    39 1   
    39    21    39 2   
    40    34    38 1   
    41    35    38 1   
@<TRIPOS>SUBSTRUCTURE
     1 VFF         1 TEMP              0 ****  ****    0 ROOT
