@<TRIPOS>MOLECULE
VFF
   39    41     1     0     0
SMALL
No Charge or Current Charge


@<TRIPOS>ATOM
      1 C10          6.0350     8.3110    26.0270 cx         1 VFF      -0.115900
      2 C13          9.6180     5.2970    28.5280 cp         1 VFF      -0.119500
      3 C15          7.9140     6.4170    29.9040 ca         1 VFF      -0.067000
      4 C21         10.2240     6.3850    30.6500 ca         1 VFF      -0.067000
      5 C22         10.5810     5.6530    29.5040 ca         1 VFF      -0.092500
      6 C02         11.1860     2.7390    26.4580 ca         1 VFF       0.429900
      7 C04         10.0890     4.0080    24.9500 ca         1 VFF       0.445900
      8 C06          9.6220     4.8530    25.9790 ca         1 VFF      -0.200000
      9 C07          8.8270     6.0200    25.6860 cg         1 VFF      -0.095000
     10 C08          8.1540     7.0070    25.4730 c1         1 VFF      -0.118100
     11 C09          7.3430     8.1870    25.2790 cx         1 VFF      -0.052600
     12 C11          7.2100     9.1780    26.4130 cx         1 VFF      -0.115900
     13 C12         10.0150     4.5160    27.3070 cp         1 VFF       0.261500
     14 C14          8.2750     5.6850    28.7610 ca         1 VFF      -0.092500
     15 C16          8.8840     6.7800    30.8620 ca         1 VFF      -0.133600
     16 C19          9.2360     8.6050    34.1310 c3         1 VFF       0.153900
     17 N03         10.8680     2.9500    25.1810 nb         1 VFF      -0.340000
     18 N05          9.7990     4.2060    23.6360 nv         1 VFF      -1.075900
     19 N23         10.8180     3.4550    27.5230 nb         1 VFF      -0.288000
     20 O18          9.5180     7.8550    32.9350 os         1 VFF      -0.440100
     21 O20          7.3220     7.9240    32.2950 o          1 VFF      -0.490000
     22 H1           5.7520     7.5120    26.7080 hc         1 VFF       0.076450
     23 H2           5.2020     8.7860    25.5130 hc         1 VFF       0.076450
     24 H3           6.8720     6.7000    30.0430 ha         1 VFF       0.132500
     25 H4          11.0000     6.6410    31.3680 ha         1 VFF       0.132500
     26 H5          11.6220     5.3670    29.3660 ha         1 VFF       0.129000
     27 H6           7.3770     8.5910    24.2690 hc         1 VFF       0.088700
     28 H7           7.7130     8.9570    27.3520 hc         1 VFF       0.076450
     29 H8           7.1660    10.2340    26.1590 hc         1 VFF       0.076450
     30 H9           7.4990     5.4060    28.0510 ha         1 VFF       0.129000
     31 H10         10.1540     8.7580    34.7110 h1         1 VFF       0.048367
     32 H11          8.8210     9.5920    33.8860 h1         1 VFF       0.048367
     33 H12          8.5160     8.0730    34.7670 h1         1 VFF       0.048367
     34 H13         12.4680     1.2550    25.9090 hn         1 VFF       0.497000
     35 H14         12.4420     1.6090    27.6040 hn         1 VFF       0.497000
     36 H15         10.3670     3.7230    22.9450 hn         1 VFF       0.504000
     37 H16          9.4140     5.1070    23.3630 hn         1 VFF       0.504000
     38 N01         11.9840     1.6760    26.6980 nv         1 VFF      -1.059900
     39 C17          8.4760     7.5710    32.0860 c          1 VFF       0.605700
@<TRIPOS>BOND
     1     1    11 1   
     2     1    12 1   
     3     1    22 1   
     4     1    23 1   
     5     2     5 ar  
     6     2    13 1   
     7     2    14 ar  
     8     3    14 ar  
     9     3    15 ar  
    10     3    24 1   
    11     4     5 ar  
    12     4    15 ar  
    13     4    25 1   
    14     5    26 1   
    15     6    17 ar  
    16     6    19 ar  
    17     6    38 1   
    18     7     8 ar  
    19     7    17 ar  
    20     7    18 1   
    21     8     9 1   
    22     8    13 ar  
    23     9    10 3   
    24    10    11 1   
    25    11    12 1   
    26    11    27 1   
    27    12    28 1   
    28    12    29 1   
    29    13    19 ar  
    30    14    30 1   
    31    15    39 1   
    32    16    20 1   
    33    16    31 1   
    34    16    32 1   
    35    16    33 1   
    36    18    36 1   
    37    18    37 1   
    38    20    39 1   
    39    21    39 2   
    40    34    38 1   
    41    35    38 1   
@<TRIPOS>SUBSTRUCTURE
     1 VFF         1 TEMP              0 ****  ****    0 ROOT
