@<TRIPOS>MOLECULE
VFG
   22    22     1     0     0
SMALL
abcg2


@<TRIPOS>ATOM
      1 C13         -7.0030     8.3490    11.7790 c3         1 VFG      -0.080100
      2 C05         -5.2910     2.8170    15.6190 cc         1 VFG       0.111300
      3 C08         -4.8850     4.6530    14.2490 cc         1 VFG       0.508300
      4 C11         -5.9900     6.4020    13.0240 c          1 VFG       0.602100
      5 C12         -5.7400     7.5920    12.1420 c3         1 VFG      -0.147400
      6 N04         -5.4360     0.1880    15.9150 n8         1 VFG      -1.027100
      7 N06         -4.0350     3.0070    15.4250 nd         1 VFG      -0.178000
      8 N07         -3.7890     4.0600    14.6350 nd         1 VFG      -0.408000
      9 N10         -4.8590     5.7490    13.4470 ns         1 VFG      -0.472400
     10 O02         -5.2530     1.6000    17.9440 o          1 VFG      -0.533000
     11 O03         -7.3720     1.7460    16.5960 o          1 VFG      -0.533000
     12 O14         -7.0850     6.0030    13.3640 o          1 VFG      -0.556100
     13 S09         -6.3400     3.9410    14.8400 ss         1 VFG      -0.022800
     14 H1          -6.7520     9.1950    11.1420 hc         1 VFG       0.049700
     15 H2          -7.7080     7.7210    11.2370 hc         1 VFG       0.049700
     16 H3          -7.5060     8.7380    12.6640 hc         1 VFG       0.049700
     17 H4          -5.2280     7.2370    11.2420 hc         1 VFG       0.067700
     18 H5          -5.0260     8.2480    12.6470 hc         1 VFG       0.067700
     19 H6          -5.2050    -0.5610    16.5590 hn         1 VFG       0.489500
     20 H7          -6.0410    -0.1230    15.1640 hn         1 VFG       0.489500
     21 H8          -3.9450     6.0850    13.1740 hn         1 VFG       0.348500
     22 S01         -5.9350     1.5470    16.6680 sy         1 VFG       1.122200
@<TRIPOS>BOND
     1     1     5 1   
     2     1    14 1   
     3     1    15 1   
     4     1    16 1   
     5     2     7 2   
     6     2    13 1   
     7     2    22 1   
     8     3     8 2   
     9     3     9 1   
    10     3    13 1   
    11     4     5 1   
    12     4     9 1   
    13     4    12 2   
    14     5    17 1   
    15     5    18 1   
    16     6    19 1   
    17     6    20 1   
    18     6    22 1   
    19     7     8 1   
    20     9    21 1   
    21    10    22 2   
    22    11    22 2   
@<TRIPOS>SUBSTRUCTURE
     1 VFG         1 TEMP              0 ****  ****    0 ROOT
