@<TRIPOS>MOLECULE
VFG
   22    22     1     0     0
SMALL
No Charge or Current Charge


@<TRIPOS>ATOM
      1 C13         -6.6540     8.6040    12.0610 c3         1 VFG      -0.080100
      2 C05         -5.3940     2.8920    15.7790 cc         1 VFG       0.111300
      3 C08         -5.1660     4.7780    14.3410 cc         1 VFG       0.508300
      4 C11         -6.1140     6.1550    12.5110 c          1 VFG       0.602100
      5 C12         -5.7800     7.3920    11.6690 c3         1 VFG      -0.147400
      6 N04         -5.2980     0.1530    15.7910 n8         1 VFG      -1.027100
      7 N06         -4.2680     3.5590    16.0030 nd         1 VFG      -0.178000
      8 N07         -4.1410     4.6550    15.1670 nd         1 VFG      -0.408000
      9 N10         -5.1710     5.8270    13.4520 ns         1 VFG      -0.472400
     10 O02         -5.1480     1.2840    17.9460 o          1 VFG      -0.533000
     11 O03         -7.3340     1.2050    16.6170 o          1 VFG      -0.533000
     12 O14         -7.1310     5.5060    12.3250 o          1 VFG      -0.556100
     13 S09         -6.3940     3.5520    14.5170 ss         1 VFG      -0.022800
     14 H1          -6.4020     9.4750    11.4440 hc         1 VFG       0.049700
     15 H2          -7.7190     8.3810    11.9170 hc         1 VFG       0.049700
     16 H3          -6.4980     8.8730    13.1130 hc         1 VFG       0.049700
     17 H4          -5.9710     7.1600    10.6140 hc         1 VFG       0.067700
     18 H5          -4.7280     7.6710    11.8000 hc         1 VFG       0.067700
     19 H6          -4.7330    -0.3270    16.4900 hn         1 VFG       0.489500
     20 H7          -6.1210    -0.4450    15.7410 hn         1 VFG       0.489500
     21 H8          -4.3740     6.4460    13.4940 hn         1 VFG       0.348500
     22 S01         -5.8850     1.3980    16.6860 sy         1 VFG       1.122200
@<TRIPOS>BOND
     1     1     5 1   
     2     1    14 1   
     3     1    15 1   
     4     1    16 1   
     5     2     7 2   
     6     2    13 1   
     7     2    22 1   
     8     3     8 2   
     9     3     9 1   
    10     3    13 1   
    11     4     5 1   
    12     4     9 1   
    13     4    12 2   
    14     5    17 1   
    15     5    18 1   
    16     6    19 1   
    17     6    20 1   
    18     6    22 1   
    19     7     8 1   
    20     9    21 1   
    21    10    22 2   
    22    11    22 2   
@<TRIPOS>SUBSTRUCTURE
     1 VFG         1 TEMP              0 ****  ****    0 ROOT
