@<TRIPOS>MOLECULE
VFH
   21    22     1     0     0
SMALL
bcc


@<TRIPOS>ATOM
      1 N          -37.7860    41.5550    -2.0240 na         1 VFH      -0.598400
      2 C          -39.4470    41.3650    -0.2640 c3         1 VFH      -0.069900
      3 O          -40.3930    43.1580    -4.6790 o          1 VFH      -0.572100
      4 C2         -39.9610    42.3060    -2.5290 cc         1 VFH      -0.341200
      5 C4         -38.1890    42.4360    -4.2110 ca         1 VFH      -0.205600
      6 C5         -37.3150    41.8740    -3.2710 ca         1 VFH       0.179600
      7 C6         -35.9730    41.6380    -3.6000 ca         1 VFH      -0.198000
      8 C3         -39.6000    42.6760    -3.8660 c          1 VFH       0.594900
      9 C1         -39.0660    41.7620    -1.6540 cd         1 VFH       0.166800
     10 C9         -37.6920    42.7600    -5.4800 ca         1 VFH      -0.040000
     11 C8         -36.3740    42.5320    -5.8030 ca         1 VFH      -0.176000
     12 C7         -35.5140    41.9660    -4.8540 ca         1 VFH      -0.070000
     13 H1         -37.1430    41.1520    -1.3570 hn         1 VFH       0.445800
     14 H2         -38.6010    40.9820     0.3040 hc         1 VFH       0.057367
     15 H3         -39.8590    42.2180     0.2750 hc         1 VFH       0.057367
     16 H4         -40.2140    40.5930    -0.2900 hc         1 VFH       0.057367
     17 H5         -40.9810    42.4580    -2.2010 ha         1 VFH       0.156000
     18 H6         -35.3080    41.2010    -2.8650 ha         1 VFH       0.131000
     19 H7         -38.3640    43.1960    -6.2060 ha         1 VFH       0.156000
     20 H8         -36.0010    42.7880    -6.7860 ha         1 VFH       0.138000
     21 H9         -34.4770    41.7830    -5.1050 ha         1 VFH       0.132000
@<TRIPOS>BOND
     1     1     6 1   
     2     1     9 1   
     3     1    13 1   
     4     2     9 1   
     5     2    14 1   
     6     2    15 1   
     7     2    16 1   
     8     3     8 2   
     9     4     8 1   
    10     4     9 2   
    11     4    17 1   
    12     5     6 ar  
    13     5     8 1   
    14     5    10 ar  
    15     6     7 ar  
    16     7    12 ar  
    17     7    18 1   
    18    10    11 ar  
    19    10    19 1   
    20    11    12 ar  
    21    11    20 1   
    22    12    21 1   
@<TRIPOS>SUBSTRUCTURE
     1 VFH         1 TEMP              0 ****  ****    0 ROOT
