@<TRIPOS>MOLECULE
VFH
   21    22     1     0     0
SMALL
No Charge or Current Charge


@<TRIPOS>ATOM
      1 N          -37.7630    41.4810    -2.0070 na         1 VFH      -0.792000
      2 C          -39.4890    41.3490    -0.2110 c3         1 VFH      -0.069900
      3 O          -40.3560    43.3520    -4.5830 o          1 VFH      -0.572100
      4 C2         -39.9070    42.3830    -2.4940 cc         1 VFH      -0.391200
      5 C4         -38.1750    42.4900    -4.2270 ca         1 VFH      -0.205600
      6 C5         -37.3550    41.8510    -3.2930 ca         1 VFH       0.318000
      7 C6         -36.0270    41.5500    -3.6460 ca         1 VFH      -0.180000
      8 C3         -39.5590    42.7960    -3.8380 c          1 VFH       0.594900
      9 C1         -39.0750    41.7560    -1.5980 cd         1 VFH       0.166800
     10 C9         -37.6810    42.8280    -5.5050 ca         1 VFH      -0.022000
     11 C8         -36.3540    42.5220    -5.8460 ca         1 VFH      -0.158000
     12 C7         -35.5240    41.8820    -4.9150 ca         1 VFH      -0.052000
     13 H1         -37.1100    41.0180    -1.3780 hn         1 VFH       0.501000
     14 H2         -38.8680    41.8420     0.5460 hc         1 VFH       0.057367
     15 H3         -40.5330    41.6160    -0.0080 hc         1 VFH       0.057367
     16 H4         -39.3920    40.2650    -0.0740 hc         1 VFH       0.057367
     17 H5         -40.9280    42.6140    -2.2190 ha         1 VFH       0.206000
     18 H6         -35.3750    41.0540    -2.9330 ha         1 VFH       0.113000
     19 H7         -38.3210    43.3260    -6.2320 ha         1 VFH       0.138000
     20 H8         -35.9710    42.7820    -6.8310 ha         1 VFH       0.120000
     21 H9         -34.4950    41.6430    -5.1750 ha         1 VFH       0.114000
@<TRIPOS>BOND
     1     1     6 1   
     2     1     9 1   
     3     1    13 1   
     4     2     9 1   
     5     2    14 1   
     6     2    15 1   
     7     2    16 1   
     8     3     8 2   
     9     4     8 1   
    10     4     9 2   
    11     4    17 1   
    12     5     6 ar  
    13     5     8 1   
    14     5    10 ar  
    15     6     7 ar  
    16     7    12 ar  
    17     7    18 1   
    18    10    11 ar  
    19    10    19 1   
    20    11    12 ar  
    21    11    20 1   
    22    12    21 1   
@<TRIPOS>SUBSTRUCTURE
     1 VFH         1 TEMP              0 ****  ****    0 ROOT
