@<TRIPOS>MOLECULE
VFI
   55    59     1     0     0
SMALL
No Charge or Current Charge


@<TRIPOS>ATOM
      1 CBE         -8.2400   -14.1890     2.0760 c3         1 VFI      -0.132400
      2 CAD         -8.4930   -13.3940     3.3270 cc         1 VFI       0.216300
      3 OAC         -7.4250   -12.7470     3.8990 os         1 VFI      -0.075700
      4 NAB         -7.8610   -12.1260     5.1170 nc         1 VFI      -0.370300
      5 CAA         -9.1360   -12.4510     5.2110 cd         1 VFI       0.295300
      6 CBD         -9.9500   -11.8970     6.3520 c3         1 VFI      -0.135400
      7 CAE         -9.5860   -13.2750     4.1470 cd         1 VFI      -0.174000
      8 CAF        -10.9740   -13.7420     3.9050 ca         1 VFI      -0.022000
      9 CAG        -11.7270   -14.2270     4.9930 ca         1 VFI      -0.039000
     10 CAK        -11.5830   -13.7030     2.6280 ca         1 VFI       0.153100
     11 OAP        -10.9120   -13.1030     1.5780 os         1 VFI      -0.333100
     12 CAQ        -11.4680   -12.9880     0.2550 c3         1 VFI       0.143900
     13 CAJ        -12.8950   -14.1920     2.4630 ca         1 VFI      -0.204000
     14 CAI        -13.6250   -14.7220     3.5440 ca         1 VFI      -0.002000
     15 CAO        -14.9450   -15.2420     3.4260 ca         1 VFI      -0.060200
     16 CAH        -13.0400   -14.7060     4.8450 ca         1 VFI       0.233000
     17 NAL        -13.7060   -15.1260     5.9520 nb         1 VFI      -0.668000
     18 CAM        -14.9880   -15.5470     5.8170 ca         1 VFI       0.405900
     19 CAN        -15.6300   -15.5970     4.5620 ca         1 VFI       0.007400
     20 NAR        -16.9450   -15.9510     4.2990 nc         1 VFI      -0.553100
     21 CAS        -17.0170   -15.8060     2.9680 cd         1 VFI       0.397800
     22 CAU        -18.2840   -16.1370     2.2270 c3         1 VFI      -0.112400
     23 NAT        -15.8080   -15.4310     2.3470 na         1 VFI      -0.159600
     24 CAV        -15.4380   -15.7490     0.9390 c3         1 VFI       0.137600
     25 CBC        -14.3200   -16.8220     0.8550 c3         1 VFI      -0.107100
     26 CAW        -15.2580   -14.5180     0.0220 ca         1 VFI      -0.106300
     27 CAX        -14.5270   -14.6060    -1.1860 ca         1 VFI      -0.100000
     28 CAY        -14.3550   -13.4770    -2.0060 ca         1 VFI      -0.109500
     29 CAZ        -14.9150   -12.2450    -1.6370 ca         1 VFI      -0.102000
     30 CBA        -15.6550   -12.1450    -0.4500 ca         1 VFI      -0.109500
     31 CBB        -15.8300   -13.2720     0.3710 ca         1 VFI      -0.100000
     32 H1          -7.2490   -14.6560     2.1070 hc         1 VFI       0.061700
     33 H2          -8.9800   -14.9890     1.9590 hc         1 VFI       0.061700
     34 H3          -8.2800   -13.5450     1.1900 hc         1 VFI       0.061700
     35 H4          -9.5190   -10.9640     6.7340 hc         1 VFI       0.057367
     36 H5         -10.9760   -11.6760     6.0350 hc         1 VFI       0.057367
     37 H6          -9.9920   -12.6090     7.1840 hc         1 VFI       0.057367
     38 H7         -11.2810   -14.2620     5.9810 ha         1 VFI       0.138000
     39 H8         -10.7570   -12.4860    -0.4130 h1         1 VFI       0.042700
     40 H9         -11.6860   -13.9780    -0.1640 h1         1 VFI       0.042700
     41 H10        -12.3940   -12.3980     0.2700 h1         1 VFI       0.042700
     42 H11        -13.3590   -14.1290     1.4960 ha         1 VFI       0.126000
     43 H12        -15.5100   -15.8390     6.7270 h4         1 VFI       0.035100
     44 H13        -19.1560   -16.0930     2.8910 hc         1 VFI       0.059700
     45 H14        -18.4560   -15.4300     1.4080 hc         1 VFI       0.059700
     46 H15        -18.2350   -17.1470     1.8040 hc         1 VFI       0.059700
     47 H16        -16.3130   -16.2590     0.5180 h1         1 VFI       0.071700
     48 H17        -14.4960   -17.6140     1.5930 hc         1 VFI       0.052033
     49 H18        -14.3090   -17.3000    -0.1300 hc         1 VFI       0.052033
     50 H19        -13.3270   -16.4010     1.0410 hc         1 VFI       0.052033
     51 H20        -14.0830   -15.5440    -1.5060 ha         1 VFI       0.119500
     52 H21        -13.7860   -13.5590    -2.9300 ha         1 VFI       0.117500
     53 H22        -14.7810   -11.3720    -2.2730 ha         1 VFI       0.118000
     54 H23        -16.0960   -11.1920    -0.1650 ha         1 VFI       0.117500
     55 H24        -16.4120   -13.1600     1.2830 ha         1 VFI       0.119500
@<TRIPOS>BOND
     1     1     2 1   
     2     1    32 1   
     3     1    33 1   
     4     1    34 1   
     5     2     3 1   
     6     2     7 2   
     7     3     4 1   
     8     4     5 2   
     9     5     6 1   
    10     5     7 1   
    11     6    35 1   
    12     6    36 1   
    13     6    37 1   
    14     7     8 1   
    15     8     9 ar  
    16     8    10 ar  
    17     9    16 ar  
    18     9    38 1   
    19    10    11 1   
    20    10    13 ar  
    21    11    12 1   
    22    12    39 1   
    23    12    40 1   
    24    12    41 1   
    25    13    14 ar  
    26    13    42 1   
    27    14    15 ar  
    28    14    16 ar  
    29    15    19 ar  
    30    15    23 1   
    31    16    17 ar  
    32    17    18 ar  
    33    18    19 ar  
    34    18    43 1   
    35    19    20 1   
    36    20    21 2   
    37    21    22 1   
    38    21    23 1   
    39    22    44 1   
    40    22    45 1   
    41    22    46 1   
    42    23    24 1   
    43    24    25 1   
    44    24    26 1   
    45    24    47 1   
    46    25    48 1   
    47    25    49 1   
    48    25    50 1   
    49    26    27 ar  
    50    26    31 ar  
    51    27    28 ar  
    52    27    51 1   
    53    28    29 ar  
    54    28    52 1   
    55    29    30 ar  
    56    29    53 1   
    57    30    31 ar  
    58    30    54 1   
    59    31    55 1   
@<TRIPOS>SUBSTRUCTURE
     1 VFI         1 TEMP              0 ****  ****    0 ROOT
