@<TRIPOS>MOLECULE
VFI
   55    59     1     0     0
SMALL
abcg2


@<TRIPOS>ATOM
      1 CBE         -8.0660   -14.8390     2.7580 c3         1 VFI      -0.132400
      2 CAD         -8.4500   -13.6590     3.5640 cc         1 VFI       0.216300
      3 OAC         -7.4810   -12.8480     3.9920 os         1 VFI      -0.075700
      4 NAB         -8.0180   -11.8190     4.7120 nc         1 VFI      -0.370300
      5 CAA         -9.3040   -12.0120     4.7230 cd         1 VFI       0.295300
      6 CBD        -10.2210   -11.0690     5.4120 c3         1 VFI      -0.135400
      7 CAE         -9.6480   -13.1890     3.9960 cd         1 VFI      -0.174000
      8 CAF        -10.9870   -13.7430     3.7810 ca         1 VFI      -0.022000
      9 CAG        -11.7820   -14.0930     4.8400 ca         1 VFI      -0.039000
     10 CAK        -11.5040   -13.8980     2.4670 ca         1 VFI       0.153100
     11 OAP        -10.6870   -13.5030     1.4800 os         1 VFI      -0.333100
     12 CAQ        -11.1430   -13.5910     0.1440 c3         1 VFI       0.143900
     13 CAJ        -12.7640   -14.4110     2.2660 ca         1 VFI      -0.204000
     14 CAI        -13.5780   -14.7920     3.3530 ca         1 VFI      -0.002000
     15 CAO        -14.8840   -15.3480     3.2890 ca         1 VFI      -0.060200
     16 CAH        -13.0800   -14.6170     4.6750 ca         1 VFI       0.233000
     17 NAL        -13.7650   -14.9230     5.8120 nb         1 VFI      -0.668000
     18 CAM        -14.9650   -15.4140     5.7140 ca         1 VFI       0.405900
     19 CAN        -15.5670   -15.6450     4.4650 ca         1 VFI       0.007400
     20 NAR        -16.8060   -16.1510     4.2010 nc         1 VFI      -0.553100
     21 CAS        -16.8930   -16.1730     2.9010 cd         1 VFI       0.397800
     22 CAU        -18.0820   -16.6620     2.1570 c3         1 VFI      -0.112400
     23 NAT        -15.7610   -15.6960     2.2860 na         1 VFI      -0.159600
     24 CAV        -15.5760   -15.6970     0.8400 c3         1 VFI       0.137600
     25 CBC        -14.5590   -16.7560     0.4250 c3         1 VFI      -0.107100
     26 CAW        -15.3470   -14.2980     0.2940 ca         1 VFI      -0.106300
     27 CAX        -14.7390   -14.1140    -0.9460 ca         1 VFI      -0.100000
     28 CAY        -14.5660   -12.8390    -1.4700 ca         1 VFI      -0.109500
     29 CAZ        -14.9980   -11.7270    -0.7630 ca         1 VFI      -0.102000
     30 CBA        -15.6160   -11.9020     0.4680 ca         1 VFI      -0.109500
     31 CBB        -15.7940   -13.1760     0.9880 ca         1 VFI      -0.100000
     32 H1          -7.1890   -15.3350     3.1750 hc         1 VFI       0.061700
     33 H2          -8.8830   -15.5560     2.7290 hc         1 VFI       0.061700
     34 H3          -7.8320   -14.5550     1.7310 hc         1 VFI       0.061700
     35 H4          -9.6760   -10.2110     5.8010 hc         1 VFI       0.057367
     36 H5         -10.9890   -10.7100     4.7270 hc         1 VFI       0.057367
     37 H6         -10.7310   -11.5560     6.2430 hc         1 VFI       0.057367
     38 H7         -11.4130   -13.9810     5.8530 ha         1 VFI       0.138000
     39 H8         -10.3320   -13.2280    -0.4820 h1         1 VFI       0.042700
     40 H9         -11.3770   -14.6200    -0.1410 h1         1 VFI       0.042700
     41 H10        -12.0270   -12.9700    -0.0240 h1         1 VFI       0.042700
     42 H11        -13.1460   -14.5000     1.2630 ha         1 VFI       0.126000
     43 H12        -15.5000   -15.6490     6.6300 h4         1 VFI       0.035100
     44 H13        -18.8440   -16.9580     2.8730 hc         1 VFI       0.059700
     45 H14        -18.5030   -15.8930     1.5080 hc         1 VFI       0.059700
     46 H15        -17.8440   -17.5270     1.5360 hc         1 VFI       0.059700
     47 H16        -16.5340   -16.0220     0.4310 h1         1 VFI       0.071700
     48 H17        -14.8300   -17.7100     0.8750 hc         1 VFI       0.052033
     49 H18        -14.5690   -16.8950    -0.6540 hc         1 VFI       0.052033
     50 H19        -13.5410   -16.5140     0.7260 hc         1 VFI       0.052033
     51 H20        -14.3880   -14.9610    -1.5190 ha         1 VFI       0.119500
     52 H21        -14.0860   -12.7210    -2.4320 ha         1 VFI       0.117500
     53 H22        -14.8550   -10.7330    -1.1670 ha         1 VFI       0.118000
     54 H23        -15.9630   -11.0440     1.0290 ha         1 VFI       0.117500
     55 H24        -16.2820   -13.2810     1.9490 ha         1 VFI       0.119500
@<TRIPOS>BOND
     1     1     2 1   
     2     1    32 1   
     3     1    33 1   
     4     1    34 1   
     5     2     3 1   
     6     2     7 2   
     7     3     4 1   
     8     4     5 2   
     9     5     6 1   
    10     5     7 1   
    11     6    35 1   
    12     6    36 1   
    13     6    37 1   
    14     7     8 1   
    15     8     9 ar  
    16     8    10 ar  
    17     9    16 ar  
    18     9    38 1   
    19    10    11 1   
    20    10    13 ar  
    21    11    12 1   
    22    12    39 1   
    23    12    40 1   
    24    12    41 1   
    25    13    14 ar  
    26    13    42 1   
    27    14    15 ar  
    28    14    16 ar  
    29    15    19 ar  
    30    15    23 1   
    31    16    17 ar  
    32    17    18 ar  
    33    18    19 ar  
    34    18    43 1   
    35    19    20 1   
    36    20    21 2   
    37    21    22 1   
    38    21    23 1   
    39    22    44 1   
    40    22    45 1   
    41    22    46 1   
    42    23    24 1   
    43    24    25 1   
    44    24    26 1   
    45    24    47 1   
    46    25    48 1   
    47    25    49 1   
    48    25    50 1   
    49    26    27 ar  
    50    26    31 ar  
    51    27    28 ar  
    52    27    51 1   
    53    28    29 ar  
    54    28    52 1   
    55    29    30 ar  
    56    29    53 1   
    57    30    31 ar  
    58    30    54 1   
    59    31    55 1   
@<TRIPOS>SUBSTRUCTURE
     1 VFI         1 TEMP              0 ****  ****    0 ROOT
