@<TRIPOS>MOLECULE
VFJ
   25    25     1     0     0
SMALL
bcc


@<TRIPOS>ATOM
      1 C13         -4.0570     8.8290    13.5720 c3         1 VFJ      -0.072400
      2 C15         -4.6760     9.2270    14.9040 c3         1 VFJ      -0.097100
      3 C05         -4.6710     2.7160    15.7610 cc         1 VFJ       0.110300
      4 C08         -4.1810     4.6850    14.6270 cc         1 VFJ       0.506300
      5 C11         -5.2030     6.5620    13.5250 c          1 VFJ       0.674100
      6 C12         -4.9080     7.8330    12.7800 c3         1 VFJ      -0.153400
      7 N04         -4.8270     0.0710    15.7440 n8         1 VFJ      -0.915700
      8 N06         -3.4060     2.9160    15.6670 nd         1 VFJ      -0.178000
      9 N07         -3.1110     4.0470    15.0140 nd         1 VFJ      -0.408000
     10 N10         -4.1020     5.8580    13.9440 ns         1 VFJ      -0.536400
     11 O02         -6.8090     1.5480    16.4740 o          1 VFJ      -0.603800
     12 O03         -4.7790     1.2400    17.9290 o          1 VFJ      -0.603800
     13 O14         -6.3170     6.1390    13.7630 o          1 VFJ      -0.560100
     14 S09         -5.6690     3.9240    15.0470 ss         1 VFJ      -0.021800
     15 H1          -3.0500     8.4330    13.7300 hc         1 VFJ       0.046700
     16 H2          -3.9280     9.7130    12.9460 hc         1 VFJ       0.046700
     17 H3          -4.0800     9.9980    15.3900 hc         1 VFJ       0.042700
     18 H4          -5.6850     9.6200    14.7690 hc         1 VFJ       0.042700
     19 H5          -4.7380     8.3840    15.5950 hc         1 VFJ       0.042700
     20 H6          -4.3990     7.5710    11.8480 hc         1 VFJ       0.078200
     21 H7          -5.8640     8.2850    12.5140 hc         1 VFJ       0.078200
     22 H8          -4.6400    -0.7480    16.3110 hn         1 VFJ       0.433300
     23 H9          -5.3810    -0.1480    14.9240 hn         1 VFJ       0.433300
     24 H10         -3.1700     6.1940    13.7410 hn         1 VFJ       0.350500
     25 S01         -5.3790     1.3370    16.6140 sy         1 VFJ       1.261800
@<TRIPOS>BOND
     1     1     2 1   
     2     1     6 1   
     3     1    15 1   
     4     1    16 1   
     5     2    17 1   
     6     2    18 1   
     7     2    19 1   
     8     3     8 2   
     9     3    14 1   
    10     3    25 1   
    11     4     9 2   
    12     4    10 1   
    13     4    14 1   
    14     5     6 1   
    15     5    10 1   
    16     5    13 2   
    17     6    20 1   
    18     6    21 1   
    19     7    22 1   
    20     7    23 1   
    21     7    25 1   
    22     8     9 1   
    23    10    24 1   
    24    11    25 2   
    25    12    25 2   
@<TRIPOS>SUBSTRUCTURE
     1 VFJ         1 TEMP              0 ****  ****    0 ROOT
