@<TRIPOS>MOLECULE
VFJ
   25    25     1     0     0
SMALL
No Charge or Current Charge


@<TRIPOS>ATOM
      1 C13         -4.1260     9.1020    13.8140 c3         1 VFJ      -0.072400
      2 C15         -5.3440     9.6910    14.5560 c3         1 VFJ      -0.097100
      3 C05         -4.3910     2.4500    15.7290 cc         1 VFJ       0.110300
      4 C08         -3.9980     4.4820    14.5490 cc         1 VFJ       0.506300
      5 C11         -4.8890     6.6440    13.7270 c          1 VFJ       0.607100
      6 C12         -4.4450     7.8730    12.9220 c3         1 VFJ      -0.153400
      7 N04         -5.6840     0.0410    15.5240 n8         1 VFJ      -1.026100
      8 N06         -3.1460     2.5320    15.2750 nd         1 VFJ      -0.178000
      9 N07         -2.9210     3.7150    14.5920 nd         1 VFJ      -0.408000
     10 N10         -3.9160     5.6920    13.9000 ns         1 VFJ      -0.469400
     11 O02         -6.2000     1.4280    17.4600 o          1 VFJ      -0.533000
     12 O03         -3.9480     0.2350    17.2250 o          1 VFJ      -0.533000
     13 O14         -6.0290     6.5190    14.1440 o          1 VFJ      -0.560100
     14 S09         -5.3970     3.8190    15.3520 ss         1 VFJ      -0.021800
     15 H1          -3.3530     8.8320    14.5450 hc         1 VFJ       0.046700
     16 H2          -3.6940     9.8880    13.1820 hc         1 VFJ       0.046700
     17 H3          -5.0560    10.6010    15.0960 hc         1 VFJ       0.042700
     18 H4          -6.1410     9.9520    13.8500 hc         1 VFJ       0.042700
     19 H5          -5.7450     8.9790    15.2870 hc         1 VFJ       0.042700
     20 H6          -3.5350     7.6350    12.3590 hc         1 VFJ       0.078200
     21 H7          -5.2470     8.1460    12.2250 hc         1 VFJ       0.078200
     22 H8          -5.1760    -0.8200    15.7190 hn         1 VFJ       0.488500
     23 H9          -6.5930    -0.1530    15.9400 hn         1 VFJ       0.488500
     24 H10         -3.0180     5.9170    13.4960 hn         1 VFJ       0.350500
     25 S01         -5.0380     1.0340    16.6630 sy         1 VFJ       1.120200
@<TRIPOS>BOND
     1     1     2 1   
     2     1     6 1   
     3     1    15 1   
     4     1    16 1   
     5     2    17 1   
     6     2    18 1   
     7     2    19 1   
     8     3     8 2   
     9     3    14 1   
    10     3    25 1   
    11     4     9 2   
    12     4    10 1   
    13     4    14 1   
    14     5     6 1   
    15     5    10 1   
    16     5    13 2   
    17     6    20 1   
    18     6    21 1   
    19     7    22 1   
    20     7    23 1   
    21     7    25 1   
    22     8     9 1   
    23    10    24 1   
    24    11    25 2   
    25    12    25 2   
@<TRIPOS>SUBSTRUCTURE
     1 VFJ         1 TEMP              0 ****  ****    0 ROOT
