@<TRIPOS>MOLECULE
VFL
   31    31     1     0     0
SMALL
No Charge or Current Charge


@<TRIPOS>ATOM
      1 C7          19.4130     9.8040   -38.0420 c3         1 VFL      -0.032800
      2 C8          22.8500     8.6590   -35.7570 c3         1 VFL       0.124600
      3 C9          24.0420     9.3550   -36.4700 c3         1 VFL       0.177300
      4 O1          25.2880     8.9330   -35.8730 oh         1 VFL      -0.644000
      5 C1          17.8330     7.5910   -35.3310 ca         1 VFL      -0.107300
      6 C5          19.2660     8.8940   -36.8270 ca         1 VFL      -0.103300
      7 C6          17.9900     8.4300   -36.4500 ca         1 VFL      -0.080000
      8 C4          20.3980     8.5130   -36.0740 ca         1 VFL       0.131100
      9 C3          20.2400     7.6690   -34.9530 ca         1 VFL      -0.185000
     10 C2          18.9630     7.2120   -34.5860 ca         1 VFL      -0.077000
     11 C10         23.9360    10.9180   -36.4800 c3         1 VFL       0.161800
     12 N           23.9610    11.5710   -35.1370 n8         1 VFL      -0.995200
     13 O           21.6380     8.9830   -36.4660 os         1 VFL      -0.361100
     14 H1          19.8580    10.7660   -37.7610 hc         1 VFL       0.041700
     15 H2          20.0600     9.3450   -38.7990 hc         1 VFL       0.041700
     16 H3          18.4470    10.0140   -38.5160 hc         1 VFL       0.041700
     17 H4          23.0120     7.5730   -35.7590 h1         1 VFL       0.046700
     18 H5          22.7930     8.9990   -34.7140 h1         1 VFL       0.046700
     19 H6          24.0250     9.0280   -37.5190 h1         1 VFL       0.038700
     20 H7          25.4050     7.9820   -36.0850 ho         1 VFL       0.436000
     21 H8          17.1160     8.7210   -37.0290 ha         1 VFL       0.111000
     22 H9          21.0910     7.3570   -34.3550 ha         1 VFL       0.118000
     23 H10         18.8530     6.5610   -33.7220 ha         1 VFL       0.111000
     24 H11         24.7710    11.3200   -37.0720 h1         1 VFL       0.042200
     25 H12         23.0070    11.2090   -36.9890 h1         1 VFL       0.042200
     26 H13         23.8310    12.5830   -35.2550 hn         1 VFL       0.395000
     27 H14         23.1280    11.2810   -34.6120 hn         1 VFL       0.395000
     28 H16         16.2090     6.1590   -35.4570 hc         1 VFL       0.040033
     29 H17         16.3870     6.9010   -33.8580 hc         1 VFL       0.040033
     30 H18         15.6750     7.8260   -35.1850 hc         1 VFL       0.040033
     31 C           16.4510     7.0930   -34.9360 c3         1 VFL      -0.039800
@<TRIPOS>BOND
     1     1     6 1   
     2     1    14 1   
     3     1    15 1   
     4     1    16 1   
     5     2     3 1   
     6     2    13 1   
     7     2    17 1   
     8     2    18 1   
     9     3     4 1   
    10     3    11 1   
    11     3    19 1   
    12     4    20 1   
    13     5     7 ar  
    14     5    10 ar  
    15     5    31 1   
    16     6     7 ar  
    17     6     8 ar  
    18     7    21 1   
    19     8     9 ar  
    20     8    13 1   
    21     9    10 ar  
    22     9    22 1   
    23    10    23 1   
    24    11    12 1   
    25    11    24 1   
    26    11    25 1   
    27    12    26 1   
    28    12    27 1   
    29    28    31 1   
    30    29    31 1   
    31    30    31 1   
@<TRIPOS>SUBSTRUCTURE
     1 VFL         1 TEMP              0 ****  ****    0 ROOT
