@<TRIPOS>MOLECULE
VFL
   31    31     1     0     0
SMALL
abcg2


@<TRIPOS>ATOM
      1 C7          19.4840     9.8570   -37.9750 c3         1 VFL      -0.032800
      2 C8          22.8340     8.6190   -35.8160 c3         1 VFL       0.124600
      3 C9          24.0100     9.3300   -36.4740 c3         1 VFL       0.177300
      4 O1          25.2030     9.0050   -35.7520 oh         1 VFL      -0.644000
      5 C1          17.9000     7.6310   -35.2970 ca         1 VFL      -0.107300
      6 C5          19.3240     8.9330   -36.8020 ca         1 VFL      -0.103300
      7 C6          18.0740     8.4880   -36.3890 ca         1 VFL      -0.080000
      8 C4          20.4520     8.4980   -36.0860 ca         1 VFL       0.131100
      9 C3          20.3080     7.6490   -34.9940 ca         1 VFL      -0.185000
     10 C2          19.0370     7.2240   -34.6080 ca         1 VFL      -0.077000
     11 C10         23.8530    10.8450   -36.5120 c3         1 VFL       0.161800
     12 N           23.5260    11.4230   -35.2030 n8         1 VFL      -0.995200
     13 O           21.6540     8.9660   -36.5350 os         1 VFL      -0.361100
     14 H1          19.9790    10.7870   -37.6830 hc         1 VFL       0.041700
     15 H2          20.1020     9.4050   -38.7550 hc         1 VFL       0.041700
     16 H3          18.5130    10.1030   -38.4050 hc         1 VFL       0.041700
     17 H4          22.9910     7.5360   -35.8460 h1         1 VFL       0.046700
     18 H5          22.7530     8.9290   -34.7710 h1         1 VFL       0.046700
     19 H6          24.0990     8.9840   -37.5100 h1         1 VFL       0.038700
     20 H7          25.3700     8.0590   -35.8500 ho         1 VFL       0.436000
     21 H8          17.2010     8.8260   -36.9390 ha         1 VFL       0.111000
     22 H9          21.1700     7.3140   -34.4370 ha         1 VFL       0.118000
     23 H10         18.9400     6.5660   -33.7520 ha         1 VFL       0.111000
     24 H11         24.8050    11.2640   -36.8440 h1         1 VFL       0.042200
     25 H12         23.1090    11.0810   -37.2810 h1         1 VFL       0.042200
     26 H13         23.6710    12.4260   -35.2330 hn         1 VFL       0.395000
     27 H14         22.5400    11.2900   -35.0020 hn         1 VFL       0.395000
     28 H16         16.2160     6.3010   -35.5190 hc         1 VFL       0.040033
     29 H17         16.5080     6.8260   -33.8620 hc         1 VFL       0.040033
     30 H18         15.7800     7.9350   -35.0340 hc         1 VFL       0.040033
     31 C           16.5280     7.1500   -34.9040 c3         1 VFL      -0.039800
@<TRIPOS>BOND
     1     1     6 1   
     2     1    14 1   
     3     1    15 1   
     4     1    16 1   
     5     2     3 1   
     6     2    13 1   
     7     2    17 1   
     8     2    18 1   
     9     3     4 1   
    10     3    11 1   
    11     3    19 1   
    12     4    20 1   
    13     5     7 ar  
    14     5    10 ar  
    15     5    31 1   
    16     6     7 ar  
    17     6     8 ar  
    18     7    21 1   
    19     8     9 ar  
    20     8    13 1   
    21     9    10 ar  
    22     9    22 1   
    23    10    23 1   
    24    11    12 1   
    25    11    24 1   
    26    11    25 1   
    27    12    26 1   
    28    12    27 1   
    29    28    31 1   
    30    29    31 1   
    31    30    31 1   
@<TRIPOS>SUBSTRUCTURE
     1 VFL         1 TEMP              0 ****  ****    0 ROOT
