@<TRIPOS>MOLECULE
VFM
   25    25     1     0     0
SMALL
abcg2


@<TRIPOS>ATOM
      1 C13         -6.7670     8.5390    11.9880 c3         1 VFM      -0.087100
      2 C15         -5.3010     7.0150    10.6020 c3         1 VFM      -0.087100
      3 C05         -5.3350     3.0090    15.7990 cc         1 VFM       0.115300
      4 C08         -4.8760     4.8580    14.4650 cc         1 VFM       0.508300
      5 C11         -5.8900     6.3930    12.9180 c          1 VFM       0.603100
      6 C12         -5.6040     7.5570    12.0030 c3         1 VFM      -0.126700
      7 N04         -5.3950     0.3510    15.9220 n8         1 VFM      -1.039100
      8 N06         -4.1090     3.3790    15.8920 nd         1 VFM      -0.179000
      9 N07         -3.8320     4.4440    15.1270 nd         1 VFM      -0.406000
     10 N10         -4.8150     5.9310    13.6310 ns         1 VFM      -0.468400
     11 O02         -5.4400     1.6600    18.0350 o          1 VFM      -0.532000
     12 O03         -7.4400     1.7750    16.4970 o          1 VFM      -0.532000
     13 O14         -6.9700     5.8460    13.0210 o          1 VFM      -0.559100
     14 S09         -6.3160     3.9510    14.7410 ss         1 VFM      -0.027800
     15 H1          -6.9770     8.9330    12.9830 hc         1 VFM       0.049367
     16 H2          -6.5230     9.3820    11.3410 hc         1 VFM       0.049367
     17 H3          -7.6760     8.0760    11.6050 hc         1 VFM       0.049367
     18 H4          -4.4550     6.3270    10.6060 hc         1 VFM       0.049367
     19 H5          -6.1650     6.4960    10.1860 hc         1 VFM       0.049367
     20 H6          -5.0520     7.8430     9.9380 hc         1 VFM       0.049367
     21 H7          -4.7110     8.0710    12.3690 hc         1 VFM       0.059700
     22 H8          -5.0470    -0.3700    16.5420 hn         1 VFM       0.493000
     23 H9          -5.9800    -0.0130    15.1800 hn         1 VFM       0.493000
     24 H10         -3.9190     6.3950    13.5610 hn         1 VFM       0.349500
     25 S01         -6.0090     1.6460    16.7030 sy         1 VFM       1.126200
@<TRIPOS>BOND
     1     1     6 1   
     2     1    15 1   
     3     1    16 1   
     4     1    17 1   
     5     2     6 1   
     6     2    18 1   
     7     2    19 1   
     8     2    20 1   
     9     3     8 2   
    10     3    14 1   
    11     3    25 1   
    12     4     9 2   
    13     4    10 1   
    14     4    14 1   
    15     5     6 1   
    16     5    10 1   
    17     5    13 2   
    18     6    21 1   
    19     7    22 1   
    20     7    23 1   
    21     7    25 1   
    22     8     9 1   
    23    10    24 1   
    24    11    25 2   
    25    12    25 2   
@<TRIPOS>SUBSTRUCTURE
     1 VFM         1 TEMP              0 ****  ****    0 ROOT
