@<TRIPOS>MOLECULE
VFM
   25    25     1     0     0
SMALL
No Charge or Current Charge


@<TRIPOS>ATOM
      1 C13         -6.5770     8.6740    12.0550 c3         1 VFM      -0.087100
      2 C15         -5.3600     7.1960    10.3470 c3         1 VFM      -0.087100
      3 C05         -5.3780     2.9720    15.9180 cc         1 VFM       0.115300
      4 C08         -5.0650     4.8640    14.5030 cc         1 VFM       0.508300
      5 C11         -5.9290     6.2800    12.6610 c          1 VFM       0.603100
      6 C12         -5.5480     7.5360    11.8460 c3         1 VFM      -0.126700
      7 N04         -5.3550     0.2300    15.9100 n8         1 VFM      -1.039100
      8 N06         -4.2400     3.6080    16.1760 nd         1 VFM      -0.179000
      9 N07         -4.0640     4.7070    15.3530 nd         1 VFM      -0.406000
     10 N10         -5.0190     5.9190    13.6230 ns         1 VFM      -0.468400
     11 O02         -5.2270     1.3400    18.0760 o          1 VFM      -0.532000
     12 O03         -7.3810     1.3300    16.6960 o          1 VFM      -0.532000
     13 O14         -6.9640     5.6650    12.4570 o          1 VFM      -0.559100
     14 S09         -6.3280     3.6690    14.6380 ss         1 VFM      -0.027800
     15 H1          -6.6680     8.9230    13.1190 hc         1 VFM       0.049367
     16 H2          -6.2670     9.5800    11.5200 hc         1 VFM       0.049367
     17 H3          -7.5670     8.3800    11.6860 hc         1 VFM       0.049367
     18 H4          -4.6020     6.4140    10.2200 hc         1 VFM       0.049367
     19 H5          -6.2980     6.8390     9.9050 hc         1 VFM       0.049367
     20 H6          -5.0320     8.0800     9.7870 hc         1 VFM       0.049367
     21 H7          -4.5820     7.9040    12.2160 hc         1 VFM       0.059700
     22 H8          -4.8240    -0.2710    16.6210 hn         1 VFM       0.493000
     23 H9          -6.1940    -0.3430    15.8350 hn         1 VFM       0.493000
     24 H10         -4.2050     6.5130    13.6880 hn         1 VFM       0.349500
     25 S01         -5.9300     1.4840    16.8010 sy         1 VFM       1.126200
@<TRIPOS>BOND
     1     1     6 1   
     2     1    15 1   
     3     1    16 1   
     4     1    17 1   
     5     2     6 1   
     6     2    18 1   
     7     2    19 1   
     8     2    20 1   
     9     3     8 2   
    10     3    14 1   
    11     3    25 1   
    12     4     9 2   
    13     4    10 1   
    14     4    14 1   
    15     5     6 1   
    16     5    10 1   
    17     5    13 2   
    18     6    21 1   
    19     7    22 1   
    20     7    23 1   
    21     7    25 1   
    22     8     9 1   
    23    10    24 1   
    24    11    25 2   
    25    12    25 2   
@<TRIPOS>SUBSTRUCTURE
     1 VFM         1 TEMP              0 ****  ****    0 ROOT
