@<TRIPOS>MOLECULE
VFN
   44    46     1     0     0
SMALL
No Charge or Current Charge


@<TRIPOS>ATOM
      1 C23        -36.7420     8.6370    33.8960 ca         1 VFN      -0.100000
      2 C24        -36.8870     7.3650    33.3190 ca         1 VFN      -0.106000
      3 C11        -31.9320     8.9430    36.1420 ca         1 VFN      -0.079500
      4 C13        -33.4540     7.7230    34.6880 ca         1 VFN      -0.079500
      5 C10        -31.5850     9.7850    35.0720 ca         1 VFN      -0.098000
      6 C14        -33.1100     8.5690    33.6200 ca         1 VFN      -0.098000
      7 C22        -36.6690     9.7790    33.0790 ca         1 VFN      -0.115000
      8 C25        -36.9630     7.2350    31.9220 ca         1 VFN      -0.088000
      9 C12        -32.8690     7.9090    35.9550 ca         1 VFN      -0.028000
     10 C9         -32.1750     9.6050    33.8050 ca         1 VFN      -0.091300
     11 C21        -36.7400     9.6550    31.6770 ca         1 VFN      -0.091000
     12 C26        -36.8930     8.3750    31.1020 ca         1 VFN       0.128000
     13 C5         -33.3490    12.6360    34.5740 cc         1 VFN       0.365300
     14 C2         -34.4640    12.0170    36.2160 cc         1 VFN       0.661900
     15 C17        -33.9060    11.2020    31.3880 c          1 VFN       0.608100
     16 C8         -31.8340    10.5450    32.6550 c3         1 VFN       0.138300
     17 C6         -32.9190    12.7850    33.1330 c3         1 VFN       0.089700
     18 C19        -35.1930    12.0460    31.3400 c3         1 VFN      -0.081400
     19 N16        -33.5290     6.3550    37.9380 n1         1 VFN      -0.447000
     20 N4         -32.7180    13.0990    35.6450 nd         1 VFN      -0.326000
     21 N3         -33.4620    12.6900    36.7250 nd         1 VFN      -0.429000
     22 N1         -35.4530    11.4480    36.9140 nv         1 VFN      -1.031900
     23 N7         -32.9350    11.4980    32.3760 n          1 VFN      -0.416800
     24 O18        -33.7380    10.2690    30.6130 o          1 VFN      -0.557100
     25 O28        -34.4770    11.9410    34.8750 os         1 VFN      -0.308000
     26 S20        -36.6300    11.1130    30.6350 ss         1 VFN      -0.053000
     27 Cl1        -36.9870     8.1710    29.3530 cl         1 VFN      -0.182000
     28 H1         -36.6880     8.7370    34.9780 ha         1 VFN       0.107000
     29 H2         -36.9440     6.4830    33.9520 ha         1 VFN       0.120000
     30 H3         -31.4730     9.0980    37.1170 ha         1 VFN       0.130000
     31 H4         -34.1780     6.9260    34.5300 ha         1 VFN       0.130000
     32 H5         -30.8660    10.5860    35.2330 ha         1 VFN       0.135000
     33 H6         -33.5790     8.4210    32.6490 ha         1 VFN       0.135000
     34 H7         -36.5700    10.7580    33.5400 ha         1 VFN       0.117000
     35 H8         -37.0770     6.2520    31.4730 ha         1 VFN       0.131000
     36 H9         -31.6020     9.9530    31.7600 h1         1 VFN       0.075700
     37 H10        -30.9220    11.1070    32.8980 h1         1 VFN       0.075700
     38 H11        -31.8970    13.1850    33.1200 h1         1 VFN       0.082200
     39 H12        -33.5490    13.5390    32.6490 h1         1 VFN       0.082200
     40 H13        -34.9970    12.9370    30.7330 h1         1 VFN       0.094200
     41 H14        -35.4530    12.3620    32.3550 h1         1 VFN       0.094200
     42 H15        -35.9900    10.7360    36.4350 hn         1 VFN       0.494500
     43 H16        -35.2790    11.2970    37.9010 hn         1 VFN       0.494500
     44 C15        -33.2280     7.0500    37.0490 cg         1 VFN       0.317000
@<TRIPOS>BOND
     1     1     2 ar  
     2     1     7 ar  
     3     1    28 1   
     4     2     8 ar  
     5     2    29 1   
     6     3     5 ar  
     7     3     9 ar  
     8     3    30 1   
     9     4     6 ar  
    10     4     9 ar  
    11     4    31 1   
    12     5    10 ar  
    13     5    32 1   
    14     6    10 ar  
    15     6    33 1   
    16     7    11 ar  
    17     7    34 1   
    18     8    12 ar  
    19     8    35 1   
    20     9    44 1   
    21    10    16 1   
    22    11    12 ar  
    23    11    26 1   
    24    12    27 1   
    25    13    17 1   
    26    13    20 2   
    27    13    25 1   
    28    14    21 2   
    29    14    22 1   
    30    14    25 1   
    31    15    18 1   
    32    15    23 1   
    33    15    24 2   
    34    16    23 1   
    35    16    36 1   
    36    16    37 1   
    37    17    23 1   
    38    17    38 1   
    39    17    39 1   
    40    18    26 1   
    41    18    40 1   
    42    18    41 1   
    43    19    44 3   
    44    20    21 1   
    45    22    42 1   
    46    22    43 1   
@<TRIPOS>SUBSTRUCTURE
     1 VFN         1 TEMP              0 ****  ****    0 ROOT
