@<TRIPOS>MOLECULE
VFN
   44    46     1     0     0
SMALL
abcg2


@<TRIPOS>ATOM
      1 C23        -36.8700     8.3920    33.3920 ca         1 VFN      -0.100000
      2 C24        -37.6690     7.4150    32.8170 ca         1 VFN      -0.106000
      3 C11        -31.5590     9.3840    36.3830 ca         1 VFN      -0.079500
      4 C13        -33.1870     8.0770    35.1630 ca         1 VFN      -0.079500
      5 C10        -31.2850    10.0980    35.2280 ca         1 VFN      -0.098000
      6 C14        -32.9000     8.7970    34.0200 ca         1 VFN      -0.098000
      7 C22        -36.4160     9.4620    32.6370 ca         1 VFN      -0.115000
      8 C25        -38.0150     7.5170    31.4790 ca         1 VFN      -0.088000
      9 C12        -32.5200     8.3760    36.3520 ca         1 VFN      -0.028000
     10 C9         -31.9590     9.8270    34.0430 ca         1 VFN      -0.091300
     11 C21        -36.7430     9.5790    31.2880 ca         1 VFN      -0.091000
     12 C26        -37.5550     8.5880    30.7310 ca         1 VFN       0.128000
     13 C5         -33.4110    12.4600    34.6150 cc         1 VFN       0.365300
     14 C2         -34.3710    11.5840    36.2770 cc         1 VFN       0.661900
     15 C17        -33.7510    10.9730    31.5160 c          1 VFN       0.608100
     16 C8         -31.7150    10.6700    32.8140 c3         1 VFN       0.138300
     17 C6         -33.0820    12.6900    33.1820 c3         1 VFN       0.089700
     18 C19        -35.0310    11.7700    31.2690 c3         1 VFN      -0.081400
     19 N16        -33.0740     7.0610    38.5000 n1         1 VFN      -0.447000
     20 N4         -32.8860    12.9810    35.6550 nd         1 VFN      -0.326000
     21 N3         -33.5020    12.4210    36.7510 nd         1 VFN      -0.429000
     22 N1         -35.2540    10.8100    36.9280 nv         1 VFN      -1.031900
     23 N7         -32.8910    11.4550    32.4500 n          1 VFN      -0.416800
     24 O18        -33.5230     9.9540    30.8940 o          1 VFN      -0.557100
     25 O28        -34.3800    11.5720    34.9370 os         1 VFN      -0.308000
     26 S20        -36.2170    10.8950    30.2420 ss         1 VFN      -0.053000
     27 CL1        -38.0020     8.6990    29.0610 cl         1 VFN      -0.182000
     28 H1         -36.5930     8.3300    34.4360 ha         1 VFN       0.107000
     29 H2         -38.0240     6.5770    33.4020 ha         1 VFN       0.120000
     30 H3         -31.0380     9.6140    37.3020 ha         1 VFN       0.130000
     31 H4         -33.9280     7.2880    35.1380 ha         1 VFN       0.130000
     32 H5         -30.5480    10.8910    35.2590 ha         1 VFN       0.135000
     33 H6         -33.4240     8.5560    33.1050 ha         1 VFN       0.135000
     34 H7         -35.8070    10.2070    33.1270 ha         1 VFN       0.117000
     35 H8         -38.6390     6.7670    31.0120 ha         1 VFN       0.131000
     36 H9         -31.4340    10.0440    31.9690 h1         1 VFN       0.075700
     37 H10        -30.8890    11.3600    32.9930 h1         1 VFN       0.075700
     38 H11        -32.1660    13.2820    33.1510 h1         1 VFN       0.082200
     39 H12        -33.8500    13.3000    32.7100 h1         1 VFN       0.082200
     40 H13        -34.7940    12.6750    30.7010 h1         1 VFN       0.094200
     41 H14        -35.5090    12.1070    32.1880 h1         1 VFN       0.094200
     42 H15        -35.5850     9.9820    36.4580 hn         1 VFN       0.494500
     43 H16        -35.0850    10.6880    37.9140 hn         1 VFN       0.494500
     44 C15        -32.8250     7.6490    37.5410 cg         1 VFN       0.317000
@<TRIPOS>BOND
     1     1     2 ar  
     2     1     7 ar  
     3     1    28 1   
     4     2     8 ar  
     5     2    29 1   
     6     3     5 ar  
     7     3     9 ar  
     8     3    30 1   
     9     4     6 ar  
    10     4     9 ar  
    11     4    31 1   
    12     5    10 ar  
    13     5    32 1   
    14     6    10 ar  
    15     6    33 1   
    16     7    11 ar  
    17     7    34 1   
    18     8    12 ar  
    19     8    35 1   
    20     9    44 1   
    21    10    16 1   
    22    11    12 ar  
    23    11    26 1   
    24    12    27 1   
    25    13    17 1   
    26    13    20 2   
    27    13    25 1   
    28    14    21 2   
    29    14    22 1   
    30    14    25 1   
    31    15    18 1   
    32    15    23 1   
    33    15    24 2   
    34    16    23 1   
    35    16    36 1   
    36    16    37 1   
    37    17    23 1   
    38    17    38 1   
    39    17    39 1   
    40    18    26 1   
    41    18    40 1   
    42    18    41 1   
    43    19    44 3   
    44    20    21 1   
    45    22    42 1   
    46    22    43 1   
@<TRIPOS>SUBSTRUCTURE
     1 VFN         1 TEMP              0 ****  ****    0 ROOT
