@<TRIPOS>MOLECULE
VFO
   76    80     1     0     0
SMALL
No Charge or Current Charge


@<TRIPOS>ATOM
      1 C15         27.9390    53.8340    39.9370 ca         1 VFO      -0.065300
      2 C16         28.0870    52.4410    39.7690 ca         1 VFO      -0.132000
      3 C17         27.9400    51.8530    38.5050 ca         1 VFO       0.165000
      4 C18         27.6380    52.6420    37.3770 ca         1 VFO      -0.030000
      5 C19         27.4820    52.0400    36.0530 cc         1 VFO      -0.182000
      6 C20         28.2840    52.3970    34.9880 cd         1 VFO       0.300300
      7 C21         29.3980    53.4090    34.9910 c3         1 VFO      -0.121400
      8 C22         27.0020    50.8510    34.0300 cc         1 VFO       0.407300
      9 C23         27.4660    54.0280    37.5450 ca         1 VFO      -0.080000
     10 C24         27.6060    54.6290    38.8110 ca         1 VFO      -0.078300
     11 C25         27.3990    56.1430    38.9320 c6         1 VFO      -0.031100
     12 C26         27.1470    56.6090    40.3820 c6         1 VFO      -0.071400
     13 C27         28.1970    55.9950    41.3260 c6         1 VFO      -0.086400
     14 C28         34.7270    56.3530    49.7000 cx         1 VFO      -0.112900
     15 C1          33.2470    56.0790    49.5300 cx         1 VFO       0.024000
     16 C10         32.0700    50.8820    43.9010 c5         1 VFO       0.152300
     17 C11         30.8340    51.4040    43.1290 c5         1 VFO      -0.081400
     18 C12         30.7390    52.8800    43.6170 c5         1 VFO       0.034700
     19 C14         28.0950    54.4520    41.3400 c6         1 VFO       0.154000
     20 C2          32.8030    54.7000    49.0500 c          1 VFO       0.622100
     21 C29         33.9750    56.9730    48.5470 cx         1 VFO      -0.112900
     22 C3          31.1530    53.5370    47.5000 c3         1 VFO       0.048700
     23 C4          29.7860    53.1600    48.1970 c3         1 VFO      -0.048000
     24 C5          29.2000    51.8450    47.6150 c3         1 VFO      -0.090100
     25 C6          28.7370    54.2920    48.0100 c3         1 VFO      -0.090100
     26 C7          30.0030    52.9380    49.7210 c3         1 VFO      -0.090100
     27 C9          31.8130    51.4610    45.3280 c5         1 VFO       0.074000
     28 F1          32.3810    56.6710    50.4070 f          1 VFO      -0.235000
     29 F2          28.1090    50.5160    38.3800 f          1 VFO      -0.180000
     30 N1          31.7790    54.7260    48.1300 ns         1 VFO      -0.479900
     31 N2          31.0550    52.7110    45.0620 n          1 VFO      -0.390800
     32 N3          29.2720    53.8880    42.0100 ns         1 VFO      -0.494900
     33 N4          27.9960    51.7110    33.8170 nd         1 VFO      -0.640000
     34 O1          33.2870    51.3720    43.3230 oh         1 VFO      -0.658000
     35 O3          30.8920    54.9440    45.5240 o          1 VFO      -0.615100
     36 O4          33.3120    53.6560    49.4410 o          1 VFO      -0.617100
     37 S1          26.3450    50.7920    35.6470 ss         1 VFO       0.001600
     38 H1          28.3150    51.8050    40.6200 ha         1 VFO       0.135000
     39 H2          30.0970    53.2360    34.1650 hc         1 VFO       0.052033
     40 H3          29.0020    54.4250    34.8860 hc         1 VFO       0.052033
     41 H4          29.9720    53.3630    35.9240 hc         1 VFO       0.052033
     42 H5          26.5880    50.1950    33.2740 h5         1 VFO       0.053100
     43 H6          27.2120    54.6430    36.6850 ha         1 VFO       0.121000
     44 H7          28.2880    56.6540    38.5370 hc         1 VFO       0.051700
     45 H8          26.5590    56.4610    38.2990 hc         1 VFO       0.051700
     46 H9          27.1820    57.7060    40.4340 hc         1 VFO       0.049700
     47 H10         26.1380    56.3090    40.7010 hc         1 VFO       0.049700
     48 H11         29.2010    56.3020    41.0000 hc         1 VFO       0.055200
     49 H12         28.0660    56.3850    42.3450 hc         1 VFO       0.055200
     50 H14         35.4260    55.5490    49.4770 hc         1 VFO       0.093450
     51 H15         32.0860    49.7830    43.9200 h1         1 VFO       0.056700
     52 H16         29.9390    50.8330    43.4040 hc         1 VFO       0.074200
     53 H17         30.9480    51.3230    42.0420 hc         1 VFO       0.074200
     54 H18         31.4860    53.5230    43.1310 h1         1 VFO       0.078700
     55 H19         27.1950    54.1770    41.9110 h1         1 VFO       0.097700
     56 H20         34.1710    56.5860    47.5490 hc         1 VFO       0.093450
     57 H21         33.7730    58.0410    48.5880 hc         1 VFO       0.093450
     58 H22         31.8390    52.6920    47.6280 h1         1 VFO       0.084700
     59 H23         28.2700    51.5730    48.1280 hc         1 VFO       0.041922
     60 H24         28.9630    51.9430    46.5500 hc         1 VFO       0.041922
     61 H25         29.9010    51.0130    47.7430 hc         1 VFO       0.041922
     62 H26         29.0950    55.2430    48.4230 hc         1 VFO       0.041922
     63 H27         28.5020    54.4480    46.9500 hc         1 VFO       0.041922
     64 H28         27.7990    54.0420    48.5200 hc         1 VFO       0.041922
     65 H29         30.3110    53.8620    50.2250 hc         1 VFO       0.041922
     66 H30         29.0780    52.5990    50.2040 hc         1 VFO       0.041922
     67 H31         30.7730    52.1780    49.9010 hc         1 VFO       0.041922
     68 H32         31.2150    50.7600    45.9220 h1         1 VFO       0.063200
     69 H33         32.7540    51.6500    45.8630 h1         1 VFO       0.063200
     70 H34         31.4480    55.6430    47.8510 hn         1 VFO       0.348500
     71 H35         30.1310    53.8230    41.4780 hn         1 VFO       0.317500
     72 H36         34.0290    50.9350    43.7970 ho         1 VFO       0.448000
     73 C13         29.3070    53.4170    43.3050 c          1 VFO       0.601100
     74 C8          31.0340    53.8030    45.9590 c          1 VFO       0.601100
     75 O2          28.3360    53.4380    44.0510 o          1 VFO      -0.604100
     76 H13         35.0300    57.0030    50.5180 hc         1 VFO       0.093450
@<TRIPOS>BOND
     1     1     2 ar  
     2     1    10 ar  
     3     1    19 1   
     4     2     3 ar  
     5     2    38 1   
     6     3     4 ar  
     7     3    29 1   
     8     4     5 1   
     9     4     9 ar  
    10     5     6 2   
    11     5    37 1   
    12     6     7 1   
    13     6    33 1   
    14     7    39 1   
    15     7    40 1   
    16     7    41 1   
    17     8    33 2   
    18     8    37 1   
    19     8    42 1   
    20     9    10 ar  
    21     9    43 1   
    22    10    11 1   
    23    11    12 1   
    24    11    44 1   
    25    11    45 1   
    26    12    13 1   
    27    12    46 1   
    28    12    47 1   
    29    13    19 1   
    30    13    48 1   
    31    13    49 1   
    32    14    15 1   
    33    14    21 1   
    34    14    50 1   
    35    14    76 1   
    36    15    20 1   
    37    15    21 1   
    38    15    28 1   
    39    16    17 1   
    40    16    27 1   
    41    16    34 1   
    42    16    51 1   
    43    17    18 1   
    44    17    52 1   
    45    17    53 1   
    46    18    31 1   
    47    18    54 1   
    48    18    73 1   
    49    19    32 1   
    50    19    55 1   
    51    20    30 1   
    52    20    36 2   
    53    21    56 1   
    54    21    57 1   
    55    22    23 1   
    56    22    30 1   
    57    22    58 1   
    58    22    74 1   
    59    23    24 1   
    60    23    25 1   
    61    23    26 1   
    62    24    59 1   
    63    24    60 1   
    64    24    61 1   
    65    25    62 1   
    66    25    63 1   
    67    25    64 1   
    68    26    65 1   
    69    26    66 1   
    70    26    67 1   
    71    27    31 1   
    72    27    68 1   
    73    27    69 1   
    74    30    70 1   
    75    31    74 1   
    76    32    71 1   
    77    32    73 1   
    78    34    72 1   
    79    35    74 2   
    80    73    75 2   
@<TRIPOS>SUBSTRUCTURE
     1 VFO         1 TEMP              0 ****  ****    0 ROOT
