@<TRIPOS>MOLECULE
VFO
   76    80     1     0     0
SMALL
abcg2


@<TRIPOS>ATOM
      1 C15         28.2440    53.8550    40.0380 ca         1 VFO      -0.065300
      2 C16         28.6250    52.5250    39.8520 ca         1 VFO      -0.132000
      3 C17         28.4050    51.9080    38.6430 ca         1 VFO       0.165000
      4 C18         27.8100    52.5510    37.5560 ca         1 VFO      -0.030000
      5 C19         27.5930    51.9010    36.2610 cc         1 VFO      -0.182000
      6 C20         27.7000    52.4500    35.0020 cd         1 VFO       0.300300
      7 C21         28.1480    53.8380    34.6650 c3         1 VFO      -0.121400
      8 C22         27.0420    50.4150    34.4130 cc         1 VFO       0.407300
      9 C23         27.4240    53.8770    37.7750 ca         1 VFO      -0.080000
     10 C24         27.6290    54.5400    38.9820 ca         1 VFO      -0.078300
     11 C25         27.1960    55.9840    39.1030 c6         1 VFO      -0.031100
     12 C26         27.1940    56.5020    40.5410 c6         1 VFO      -0.071400
     13 C27         28.4420    56.0430    41.2850 c6         1 VFO      -0.086400
     14 C28         34.0260    56.0740    50.3630 cx         1 VFO      -0.112900
     15 C1          33.3650    55.9780    49.0250 cx         1 VFO       0.024000
     16 C10         32.3630    50.8700    44.1290 c5         1 VFO       0.152300
     17 C11         31.4830    51.4500    43.0290 c5         1 VFO      -0.081400
     18 C12         31.1060    52.8460    43.5540 c5         1 VFO       0.034700
     19 C14         28.4570    54.5200    41.3880 c6         1 VFO       0.154000
     20 C2          32.8130    54.6680    48.5540 c          1 VFO       0.622100
     21 C29         34.8430    56.1930    49.1020 cx         1 VFO      -0.112900
     22 C3          30.9810    53.5970    47.3070 c3         1 VFO       0.048700
     23 C4          29.5650    53.4020    47.9430 c3         1 VFO      -0.048000
     24 C5          28.8940    52.1750    47.3130 c3         1 VFO      -0.090100
     25 C6          28.6710    54.6300    47.7440 c3         1 VFO      -0.090100
     26 C7          29.7590    53.1510    49.4440 c3         1 VFO      -0.090100
     27 C9          31.6920    51.3800    45.4010 c5         1 VFO       0.074000
     28 F1          32.6030    57.0730    48.6370 f          1 VFO      -0.235000
     29 F2          28.8010    50.6140    38.5090 f          1 VFO      -0.180000
     30 N1          31.6670    54.7490    47.8590 ns         1 VFO      -0.479900
     31 N2          31.1870    52.7020    45.0090 n          1 VFO      -0.390800
     32 N3          29.6770    54.0650    42.0360 ns         1 VFO      -0.494900
     33 N4          27.3850    51.5920    33.9710 nd         1 VFO      -0.640000
     34 O1          33.6750    51.4100    43.9630 oh         1 VFO      -0.658000
     35 O3          30.6530    54.8670    45.3010 o          1 VFO      -0.615100
     36 O4          33.3960    53.6190    48.8270 o          1 VFO      -0.617100
     37 S1          27.0860    50.2450    36.1190 ss         1 VFO       0.001600
     38 H1          29.1060    51.9650    40.6420 ha         1 VFO       0.135000
     39 H2          28.5440    53.8530    33.6510 hc         1 VFO       0.052033
     40 H3          27.3180    54.5480    34.7100 hc         1 VFO       0.052033
     41 H4          28.9170    54.1880    35.3550 hc         1 VFO       0.052033
     42 H5          26.7590    49.5890    33.7760 h5         1 VFO       0.053100
     43 H6          26.9260    54.4090    36.9760 ha         1 VFO       0.121000
     44 H7          27.8710    56.5980    38.4980 hc         1 VFO       0.051700
     45 H8          26.2030    56.0970    38.6620 hc         1 VFO       0.051700
     46 H9          27.1340    57.5920    40.5380 hc         1 VFO       0.049700
     47 H10         26.3080    56.1330    41.0660 hc         1 VFO       0.049700
     48 H11         29.3390    56.3800    40.7540 hc         1 VFO       0.055200
     49 H12         28.4800    56.4650    42.2910 hc         1 VFO       0.055200
     50 H14         34.0880    55.1620    50.9400 hc         1 VFO       0.093450
     51 H15         32.3900    49.7790    44.1060 h1         1 VFO       0.056700
     52 H16         30.5890    50.8350    42.9220 hc         1 VFO       0.074200
     53 H17         31.9970    51.4950    42.0720 hc         1 VFO       0.074200
     54 H18         31.8270    53.5960    43.2240 h1         1 VFO       0.078700
     55 H19         27.6430    54.2120    42.0480 h1         1 VFO       0.097700
     56 H20         35.4730    55.3650    48.8100 hc         1 VFO       0.093450
     57 H21         35.1830    57.1810    48.8250 hc         1 VFO       0.093450
     58 H22         31.5720    52.7280    47.5800 h1         1 VFO       0.084700
     59 H23         27.9250    52.0070    47.7880 hc         1 VFO       0.041922
     60 H24         28.7270    52.3090    46.2440 hc         1 VFO       0.041922
     61 H25         29.4990    51.2790    47.4590 hc         1 VFO       0.041922
     62 H26         29.1020    55.5230    48.2000 hc         1 VFO       0.041922
     63 H27         28.4960    54.8320    46.6870 hc         1 VFO       0.041922
     64 H28         27.7060    54.4510    48.2230 hc         1 VFO       0.041922
     65 H29         30.2380    54.0010    49.9320 hc         1 VFO       0.041922
     66 H30         28.7890    52.9930    49.9190 hc         1 VFO       0.041922
     67 H31         30.3710    52.2630    49.6160 hc         1 VFO       0.041922
     68 H32         30.8730    50.7160    45.6870 h1         1 VFO       0.063200
     69 H33         32.3950    51.4500    46.2290 h1         1 VFO       0.063200
     70 H34         31.3140    55.6630    47.6230 hn         1 VFO       0.348500
     71 H35         30.5550    54.3700    41.6410 hn         1 VFO       0.317500
     72 H36         34.2290    51.0970    44.6890 ho         1 VFO       0.448000
     73 C13         29.7050    53.2470    43.1010 c          1 VFO       0.601100
     74 C8          30.9350    53.7690    45.7880 c          1 VFO       0.601100
     75 O2          28.6990    52.7980    43.6500 o          1 VFO      -0.604100
     76 H13         33.8280    56.9810    50.9160 hc         1 VFO       0.093450
@<TRIPOS>BOND
     1     1     2 ar  
     2     1    10 ar  
     3     1    19 1   
     4     2     3 ar  
     5     2    38 1   
     6     3     4 ar  
     7     3    29 1   
     8     4     5 1   
     9     4     9 ar  
    10     5     6 2   
    11     5    37 1   
    12     6     7 1   
    13     6    33 1   
    14     7    39 1   
    15     7    40 1   
    16     7    41 1   
    17     8    33 2   
    18     8    37 1   
    19     8    42 1   
    20     9    10 ar  
    21     9    43 1   
    22    10    11 1   
    23    11    12 1   
    24    11    44 1   
    25    11    45 1   
    26    12    13 1   
    27    12    46 1   
    28    12    47 1   
    29    13    19 1   
    30    13    48 1   
    31    13    49 1   
    32    14    15 1   
    33    14    21 1   
    34    14    50 1   
    35    14    76 1   
    36    15    20 1   
    37    15    21 1   
    38    15    28 1   
    39    16    17 1   
    40    16    27 1   
    41    16    34 1   
    42    16    51 1   
    43    17    18 1   
    44    17    52 1   
    45    17    53 1   
    46    18    31 1   
    47    18    54 1   
    48    18    73 1   
    49    19    32 1   
    50    19    55 1   
    51    20    30 1   
    52    20    36 2   
    53    21    56 1   
    54    21    57 1   
    55    22    23 1   
    56    22    30 1   
    57    22    58 1   
    58    22    74 1   
    59    23    24 1   
    60    23    25 1   
    61    23    26 1   
    62    24    59 1   
    63    24    60 1   
    64    24    61 1   
    65    25    62 1   
    66    25    63 1   
    67    25    64 1   
    68    26    65 1   
    69    26    66 1   
    70    26    67 1   
    71    27    31 1   
    72    27    68 1   
    73    27    69 1   
    74    30    70 1   
    75    31    74 1   
    76    32    71 1   
    77    32    73 1   
    78    34    72 1   
    79    35    74 2   
    80    73    75 2   
@<TRIPOS>SUBSTRUCTURE
     1 VFO         1 TEMP              0 ****  ****    0 ROOT
