@<TRIPOS>MOLECULE
VFP
   44    47     1     0     0
SMALL
abcg2


@<TRIPOS>ATOM
      1 C5         -15.0550   -78.4400   -42.5750 ca         1 VFP       0.108100
      2 C6         -14.4550   -76.5150   -43.3850 cc         1 VFP      -0.086900
      3 N1         -14.0260   -80.9550   -42.7690 nb         1 VFP      -0.761000
      4 C2         -13.4350   -79.9690   -43.3880 ca         1 VFP       0.636300
      5 N3          -9.1470   -87.8230   -44.5700 ns         1 VFP      -0.465500
      6 C4         -15.7110   -79.4650   -41.9040 ca         1 VFP      -0.184000
      7 C1         -13.9070   -78.6550   -43.3280 ca         1 VFP      -0.188800
      8 C10        -11.7380   -83.5820   -45.3470 ca         1 VFP      -0.036300
      9 C11        -10.7410   -83.9890   -44.4540 ca         1 VFP      -0.089800
     10 C12        -10.2950   -83.1300   -43.4570 ca         1 VFP      -0.076000
     11 C13        -10.8320   -81.8600   -43.3220 ca         1 VFP      -0.112000
     12 C14        -12.2200   -84.4910   -46.4390 c3         1 VFP      -0.055800
     13 C15        -10.1150   -87.5640   -43.6370 c          1 VFP       0.615000
     14 C16         -8.6310   -86.9580   -45.5120 c          1 VFP       0.585200
     15 C17         -9.1750   -85.6160   -45.4640 cc         1 VFP      -0.255400
     16 C18        -10.1450   -85.3430   -44.5610 cd         1 VFP       0.153400
     17 C3         -15.1320   -80.7070   -42.0470 ca         1 VFP       0.387900
     18 C7         -13.5280   -77.3750   -43.8500 cd         1 VFP      -0.194200
     19 C8         -11.8220   -81.4640   -44.2020 ca         1 VFP       0.132100
     20 C9         -12.2740   -82.3070   -45.2030 ca         1 VFP      -0.111000
     21 N2         -10.6360   -86.2920   -43.6850 n          1 VFP      -0.307000
     22 O1         -15.3870   -77.1420   -42.6120 os         1 VFP      -0.160200
     23 O2         -12.3250   -80.1860   -44.1190 os         1 VFP      -0.365400
     24 O3          -7.7810   -87.3370   -46.2980 o          1 VFP      -0.530000
     25 O4         -10.4770   -88.4080   -42.8410 o          1 VFP      -0.559000
     26 H1         -14.5850   -75.4530   -43.5110 h4         1 VFP       0.244000
     27 H2          -8.7710   -88.7640   -44.5560 hn         1 VFP       0.344500
     28 H3         -16.6030   -79.3150   -41.3130 ha         1 VFP       0.145000
     29 H4          -9.5190   -83.4560   -42.7750 ha         1 VFP       0.125000
     30 H5         -10.4810   -81.1920   -42.5470 ha         1 VFP       0.134000
     31 H6         -11.4540   -84.6250   -47.2060 hc         1 VFP       0.052033
     32 H7         -12.4690   -85.4830   -46.0600 hc         1 VFP       0.052033
     33 H8         -13.1050   -84.0850   -46.9250 hc         1 VFP       0.052033
     34 H9          -9.0540   -83.6360   -46.2970 hc         1 VFP       0.049033
     35 H10         -7.5390   -84.5300   -46.3230 hc         1 VFP       0.049033
     36 H11         -8.8100   -84.9330   -47.4630 hc         1 VFP       0.049033
     37 H12        -12.1550   -86.8840   -42.3890 h1         1 VFP       0.060367
     38 H13        -11.3420   -85.3910   -41.9060 h1         1 VFP       0.060367
     39 H14        -12.4810   -85.3900   -43.2610 h1         1 VFP       0.060367
     40 H15        -15.5740   -81.5650   -41.5570 h4         1 VFP       0.025100
     41 H16        -12.6890   -77.1320   -44.4800 ha         1 VFP       0.225000
     42 H17        -13.0490   -81.9680   -45.8790 ha         1 VFP       0.132000
     43 C19         -8.6200   -84.6230   -46.4340 c3         1 VFP      -0.022900
     44 C20        -11.7120   -85.9650   -42.7550 c3         1 VFP       0.086300
@<TRIPOS>BOND
     1     1     6 ar  
     2     1     7 ar  
     3     1    22 1   
     4     2    18 2   
     5     2    22 1   
     6     2    26 1   
     7     3     4 ar  
     8     3    17 ar  
     9     4     7 ar  
    10     4    23 1   
    11     5    13 1   
    12     5    14 1   
    13     5    27 1   
    14     6    17 ar  
    15     6    28 1   
    16     7    18 1   
    17     8     9 ar  
    18     8    12 1   
    19     8    20 ar  
    20     9    10 ar  
    21     9    16 1   
    22    10    11 ar  
    23    10    29 1   
    24    11    19 ar  
    25    11    30 1   
    26    12    31 1   
    27    12    32 1   
    28    12    33 1   
    29    13    21 1   
    30    13    25 2   
    31    14    15 1   
    32    14    24 2   
    33    15    16 2   
    34    15    43 1   
    35    16    21 1   
    36    17    40 1   
    37    18    41 1   
    38    19    20 ar  
    39    19    23 1   
    40    20    42 1   
    41    21    44 1   
    42    34    43 1   
    43    35    43 1   
    44    36    43 1   
    45    37    44 1   
    46    38    44 1   
    47    39    44 1   
@<TRIPOS>SUBSTRUCTURE
     1 VFP         1 TEMP              0 ****  ****    0 ROOT
