@<TRIPOS>MOLECULE
VFP
   44    47     1     0     0
SMALL
No Charge or Current Charge


@<TRIPOS>ATOM
      1 C5         -14.7730   -78.1620   -42.2580 ca         1 VFP       0.108100
      2 C6         -13.9730   -76.3860   -43.2750 cc         1 VFP      -0.086900
      3 N1         -14.5300   -80.9170   -42.6740 nb         1 VFP      -0.761000
      4 C2         -13.8840   -80.0370   -43.4820 ca         1 VFP       0.636300
      5 N3          -8.8170   -87.7060   -44.4050 ns         1 VFP      -0.465500
      6 C4         -15.4390   -79.0400   -41.4040 ca         1 VFP      -0.184000
      7 C1         -14.0170   -78.6570   -43.2750 ca         1 VFP      -0.188800
      8 C10        -11.7150   -83.6960   -45.6810 ca         1 VFP      -0.036300
      9 C11        -10.9570   -84.0840   -44.5430 ca         1 VFP      -0.089800
     10 C12        -10.9600   -83.2530   -43.4020 ca         1 VFP      -0.076000
     11 C13        -11.6830   -82.0500   -43.3870 ca         1 VFP      -0.112000
     12 C14        -11.8500   -84.5780   -46.9200 c3         1 VFP      -0.055800
     13 C15         -9.8090   -87.5330   -43.5030 c          1 VFP       0.615000
     14 C16         -8.4050   -86.8590   -45.3770 c          1 VFP       0.585200
     15 C17         -9.1350   -85.5740   -45.4180 cc         1 VFP      -0.255400
     16 C18        -10.1530   -85.3290   -44.5070 cd         1 VFP       0.153400
     17 C3         -15.2850   -80.4180   -41.6570 ca         1 VFP       0.387900
     18 C7         -13.4940   -77.5010   -43.9390 cd         1 VFP      -0.194200
     19 C8         -12.4290   -81.6690   -44.5140 ca         1 VFP       0.132100
     20 C9         -12.4350   -82.4840   -45.6540 ca         1 VFP      -0.111000
     21 N2         -10.5230   -86.3210   -43.5850 n          1 VFP      -0.307000
     22 O1         -14.7840   -76.7820   -42.2060 os         1 VFP      -0.160200
     23 O2         -13.1280   -80.4840   -44.5400 os         1 VFP      -0.365400
     24 O3          -7.4940   -87.1710   -46.1270 o          1 VFP      -0.530000
     25 O4         -10.0520   -88.4060   -42.6850 o          1 VFP      -0.559000
     26 H1         -13.8290   -75.3210   -43.4380 h4         1 VFP       0.244000
     27 H2          -8.3230   -88.5820   -44.3480 hn         1 VFP       0.344500
     28 H3         -16.0520   -78.6840   -40.5820 ha         1 VFP       0.145000
     29 H4         -10.3740   -83.5300   -42.5280 ha         1 VFP       0.125000
     30 H5         -11.6560   -81.4160   -42.5050 ha         1 VFP       0.134000
     31 H6         -11.1880   -84.2360   -47.7230 hc         1 VFP       0.052033
     32 H7         -11.6230   -85.6300   -46.7130 hc         1 VFP       0.052033
     33 H8         -12.8750   -84.5500   -47.3100 hc         1 VFP       0.052033
     34 H9          -9.0230   -83.5840   -46.3180 hc         1 VFP       0.049033
     35 H10         -7.5160   -84.4850   -46.3680 hc         1 VFP       0.049033
     36 H11         -8.8340   -84.9230   -47.4650 hc         1 VFP       0.049033
     37 H12        -12.1280   -87.1330   -42.4170 h1         1 VFP       0.060367
     38 H13        -11.4100   -85.6300   -41.7790 h1         1 VFP       0.060367
     39 H14        -12.4980   -85.5940   -43.1990 h1         1 VFP       0.060367
     40 H15        -15.7850   -81.1510   -41.0250 h4         1 VFP       0.025100
     41 H16        -12.8390   -77.4920   -44.8090 ha         1 VFP       0.225000
     42 H17        -13.0180   -82.1800   -46.5190 ha         1 VFP       0.132000
     43 C19         -8.6050   -84.5890   -46.4460 c3         1 VFP      -0.022900
     44 C20        -11.7050   -86.1590   -42.6930 c3         1 VFP       0.086300
@<TRIPOS>BOND
     1     1     6 ar  
     2     1     7 ar  
     3     1    22 1   
     4     2    18 2   
     5     2    22 1   
     6     2    26 1   
     7     3     4 ar  
     8     3    17 ar  
     9     4     7 ar  
    10     4    23 1   
    11     5    13 1   
    12     5    14 1   
    13     5    27 1   
    14     6    17 ar  
    15     6    28 1   
    16     7    18 1   
    17     8     9 ar  
    18     8    12 1   
    19     8    20 ar  
    20     9    10 ar  
    21     9    16 1   
    22    10    11 ar  
    23    10    29 1   
    24    11    19 ar  
    25    11    30 1   
    26    12    31 1   
    27    12    32 1   
    28    12    33 1   
    29    13    21 1   
    30    13    25 2   
    31    14    15 1   
    32    14    24 2   
    33    15    16 2   
    34    15    43 1   
    35    16    21 1   
    36    17    40 1   
    37    18    41 1   
    38    19    20 ar  
    39    19    23 1   
    40    20    42 1   
    41    21    44 1   
    42    34    43 1   
    43    35    43 1   
    44    36    43 1   
    45    37    44 1   
    46    38    44 1   
    47    39    44 1   
@<TRIPOS>SUBSTRUCTURE
     1 VFP         1 TEMP              0 ****  ****    0 ROOT
