@<TRIPOS>MOLECULE
VFR
   28    28     1     0     0
SMALL
No Charge or Current Charge


@<TRIPOS>ATOM
      1 N1           7.8330     2.2760    -4.4980 nu         1 VFR      -0.674900
      2 C7           9.1130     1.3760    -7.4760 c          1 VFR       0.609100
      3 C8           9.5610     2.1470    -6.2520 c3         1 VFR      -0.197700
      4 N2           9.2650     0.4960    -4.4700 n2         1 VFR      -0.789100
      5 C9           8.8990     1.5690    -5.0420 c2         1 VFR       0.583200
      6 O1           7.5090     2.0200    -3.0770 oh         1 VFR      -0.450300
      7 C1          10.2740     1.7620   -12.3150 ca         1 VFR      -0.112500
      8 C5          12.3520     0.5750   -11.8800 ca         1 VFR      -0.112500
      9 C6           9.8220    -0.3620    -9.1530 c3         1 VFR       0.151300
     10 C4          11.7770    -0.0170   -10.7430 ca         1 VFR      -0.093500
     11 C3          10.4450     0.2760   -10.3860 ca         1 VFR      -0.115300
     12 C2           9.6980     1.1700   -11.1780 ca         1 VFR      -0.093500
     13 O            8.0230     1.5550    -7.9990 o          1 VFR      -0.596100
     14 N           10.0250     0.4680    -7.9650 ns         1 VFR      -0.496900
     15 C           11.6010     1.4640   -12.6670 ca         1 VFR      -0.105000
     16 H1           7.8440     3.2830    -4.7000 hn         1 VFR       0.473000
     17 H2          10.6470     2.0650    -6.1300 hc         1 VFR       0.074200
     18 H3           9.2850     3.2000    -6.3760 hc         1 VFR       0.074200
     19 H4           8.6390     0.4160    -3.6570 hn         1 VFR       0.396400
     20 H5           6.5200     2.0290    -2.9950 ho         1 VFR       0.466000
     21 H7          13.3810     0.3450   -12.1510 ha         1 VFR       0.113000
     22 H8           8.7480    -0.5230    -9.3170 h1         1 VFR       0.065200
     23 H9          10.2770    -1.3450    -8.9760 h1         1 VFR       0.065200
     24 H10         12.3660    -0.7030   -10.1380 ha         1 VFR       0.113000
     25 H11          8.6700     1.4070   -10.9100 ha         1 VFR       0.113000
     26 H12         10.9010     0.3840    -7.4650 hn         1 VFR       0.314500
     27 H13         12.0470     1.9230   -13.5470 ha         1 VFR       0.112000
     28 H6           9.6920     2.4510   -12.9230 ha         1 VFR       0.113000
@<TRIPOS>BOND
     1     1     5 1   
     2     1     6 1   
     3     1    16 1   
     4     2     3 1   
     5     2    13 2   
     6     2    14 1   
     7     3     5 1   
     8     3    17 1   
     9     3    18 1   
    10     4     5 2   
    11     4    19 1   
    12     6    20 1   
    13     7    12 ar  
    14     7    15 ar  
    15     7    28 1   
    16     8    10 ar  
    17     8    15 ar  
    18     8    21 1   
    19     9    11 1   
    20     9    14 1   
    21     9    22 1   
    22     9    23 1   
    23    10    11 ar  
    24    10    24 1   
    25    11    12 ar  
    26    12    25 1   
    27    14    26 1   
    28    15    27 1   
@<TRIPOS>SUBSTRUCTURE
     1 VFR         1 TEMP              0 ****  ****    0 ROOT
