@<TRIPOS>MOLECULE
VFR
   28    28     1     0     0
SMALL
abcg2


@<TRIPOS>ATOM
      1 N1           8.1550     2.6290    -4.6780 nu         1 VFR      -0.674900
      2 C7           9.3640     1.1210    -7.3910 c          1 VFR       0.609100
      3 C8           9.8900     1.7080    -6.0860 c3         1 VFR      -0.197700
      4 N2           8.7360     0.3440    -4.4470 n2         1 VFR      -0.789100
      5 C9           8.8920     1.4970    -4.9700 c2         1 VFR       0.583200
      6 O1           7.4170     2.5670    -3.4820 oh         1 VFR      -0.450300
      7 C1          10.0240     1.5730   -12.4080 ca         1 VFR      -0.112500
      8 C5          12.2550     1.1510   -11.6100 ca         1 VFR      -0.112500
      9 C6           9.7940    -0.4820    -9.2090 c3         1 VFR       0.151300
     10 C4          11.7350     0.4400   -10.5350 ca         1 VFR      -0.093500
     11 C3          10.3550     0.2900   -10.3830 ca         1 VFR      -0.115300
     12 C2           9.5070     0.8630   -11.3270 ca         1 VFR      -0.093500
     13 O            8.3260     1.5360    -7.9050 o          1 VFR      -0.596100
     14 N           10.1020     0.1300    -7.9210 ns         1 VFR      -0.496900
     15 C           11.3990     1.7190   -12.5510 ca         1 VFR      -0.105000
     16 H1           8.6490     3.5110    -4.7300 hn         1 VFR       0.473000
     17 H2          10.8330     1.2490    -5.7940 hc         1 VFR       0.074200
     18 H3          10.0640     2.7710    -6.2610 hc         1 VFR       0.074200
     19 H4           8.0240     0.3860    -3.7170 hn         1 VFR       0.396400
     20 H5           6.4900     2.5820    -3.7620 ho         1 VFR       0.466000
     21 H7          13.3270     1.2580   -11.7180 ha         1 VFR       0.113000
     22 H8           8.7120    -0.5570    -9.3000 h1         1 VFR       0.065200
     23 H9          10.2040    -1.4920    -9.1880 h1         1 VFR       0.065200
     24 H10         12.4050    -0.0020    -9.8070 ha         1 VFR       0.113000
     25 H11          8.4350     0.7560   -11.2130 ha         1 VFR       0.113000
     26 H12         10.9660    -0.1260    -7.4700 hn         1 VFR       0.314500
     27 H13         11.8040     2.2720   -13.3900 ha         1 VFR       0.112000
     28 H6           9.3520     2.0130   -13.1340 ha         1 VFR       0.113000
@<TRIPOS>BOND
     1     1     5 1   
     2     1     6 1   
     3     1    16 1   
     4     2     3 1   
     5     2    13 2   
     6     2    14 1   
     7     3     5 1   
     8     3    17 1   
     9     3    18 1   
    10     4     5 2   
    11     4    19 1   
    12     6    20 1   
    13     7    12 ar  
    14     7    15 ar  
    15     7    28 1   
    16     8    10 ar  
    17     8    15 ar  
    18     8    21 1   
    19     9    11 1   
    20     9    14 1   
    21     9    22 1   
    22     9    23 1   
    23    10    11 ar  
    24    10    24 1   
    25    11    12 ar  
    26    12    25 1   
    27    14    26 1   
    28    15    27 1   
@<TRIPOS>SUBSTRUCTURE
     1 VFR         1 TEMP              0 ****  ****    0 ROOT
