@<TRIPOS>MOLECULE
VFS
   44    46     1     0     0
SMALL
bcc


@<TRIPOS>ATOM
      1 C1         -17.2180    61.3610   -19.0460 ca         1 VFS       0.138100
      2 C2         -18.4260    61.7750   -18.4550 ca         1 VFS       0.002000
      3 C3         -19.2790    62.7950   -19.0640 cc         1 VFS      -0.217300
      4 C4         -18.9460    63.9490   -19.8110 cc         1 VFS       0.339200
      5 C5         -20.6580    62.8550   -18.9760 cd         1 VFS      -0.129300
      6 C6         -18.8130    61.1630   -17.2650 ca         1 VFS      -0.110000
      7 C8         -16.8510    59.7870   -17.2450 ca         1 VFS      -0.114600
      8 C10        -13.8150    57.7960   -16.2150 c3         1 VFS       0.164000
      9 C11        -12.3790    58.2050   -16.5210 c3         1 VFS       0.121400
     10 C12        -14.0510    56.4010   -16.7450 ca         1 VFS      -0.093300
     11 C13        -13.9830    55.3110   -15.8860 ca         1 VFS      -0.108500
     12 C14        -14.1380    54.0170   -16.3670 ca         1 VFS      -0.129500
     13 C15        -14.3680    53.8010   -17.7190 ca         1 VFS      -0.122000
     14 C9         -16.0440    58.7210   -16.5810 c          1 VFS       0.676700
     15 N2         -14.7170    58.7650   -16.8000 ns         1 VFS      -0.565900
     16 C17        -14.2780    56.1770   -18.1010 ca         1 VFS      -0.108500
     17 C16        -14.4380    54.8860   -18.5840 ca         1 VFS      -0.129500
     18 C18        -16.4410    60.3810   -18.4380 ca         1 VFS      -0.196000
     19 O          -16.8930    61.9480   -20.2090 os         1 VFS      -0.312900
     20 C          -15.6970    61.5690   -20.8610 c3         1 VFS       0.124700
     21 C7         -18.0530    60.1710   -16.6680 ca         1 VFS      -0.108000
     22 N1         -21.0370    63.9620   -19.6260 na         1 VFS      -0.002600
     23 N          -20.0180    64.6430   -20.1360 nd         1 VFS      -0.529800
     24 H1         -17.9690    64.3000   -20.1000 h4         1 VFS       0.044100
     25 H2         -21.3740    62.1900   -18.5200 h4         1 VFS       0.173000
     26 H3         -19.7300    61.4840   -16.7870 ha         1 VFS       0.134000
     27 H4         -13.9440    57.7800   -15.1260 h1         1 VFS       0.073700
     28 H5         -12.2200    58.1690   -17.6060 h1         1 VFS       0.032700
     29 H6         -11.7140    57.4590   -16.0710 h1         1 VFS       0.032700
     30 H7         -13.8140    55.4740   -14.8280 ha         1 VFS       0.130000
     31 H8         -14.0860    53.1800   -15.6830 ha         1 VFS       0.130000
     32 H9         -14.4960    52.7940   -18.0960 ha         1 VFS       0.130000
     33 H10        -14.3140    59.6110   -17.1710 hn         1 VFS       0.324500
     34 H11        -14.3370    57.0140   -18.7850 ha         1 VFS       0.130000
     35 H12        -14.6160    54.7260   -19.6400 ha         1 VFS       0.130000
     36 H13        -11.3080    59.8100   -16.3340 ho         1 VFS       0.409000
     37 H14        -15.5280    60.0490   -18.9150 ha         1 VFS       0.133000
     38 H15        -15.6380    62.1660   -21.7660 h1         1 VFS       0.040367
     39 H16        -14.8150    61.7720   -20.2470 h1         1 VFS       0.040367
     40 H17        -15.7010    60.5110   -21.1370 h1         1 VFS       0.040367
     41 H18        -18.3850    59.7180   -15.7440 ha         1 VFS       0.154000
     42 H19        -21.9790    64.2940   -19.7570 hn         1 VFS       0.320700
     43 O1         -12.1550    59.4950   -16.0050 oh         1 VFS      -0.602800
     44 O2         -16.5680    57.8640   -15.8850 o          1 VFS      -0.590100
@<TRIPOS>BOND
     1     1     2 ar  
     2     1    18 ar  
     3     1    19 1   
     4     2     3 1   
     5     2     6 ar  
     6     3     4 1   
     7     3     5 2   
     8     4    23 2   
     9     4    24 1   
    10     5    22 1   
    11     5    25 1   
    12     6    21 ar  
    13     6    26 1   
    14     7    14 1   
    15     7    18 ar  
    16     7    21 ar  
    17     8     9 1   
    18     8    10 1   
    19     8    15 1   
    20     8    27 1   
    21     9    28 1   
    22     9    29 1   
    23     9    43 1   
    24    10    11 ar  
    25    10    16 ar  
    26    11    12 ar  
    27    11    30 1   
    28    12    13 ar  
    29    12    31 1   
    30    13    17 ar  
    31    13    32 1   
    32    14    15 1   
    33    14    44 2   
    34    15    33 1   
    35    16    17 ar  
    36    16    34 1   
    37    17    35 1   
    38    18    37 1   
    39    19    20 1   
    40    20    38 1   
    41    20    39 1   
    42    20    40 1   
    43    21    41 1   
    44    22    23 1   
    45    22    42 1   
    46    36    43 1   
@<TRIPOS>SUBSTRUCTURE
     1 VFS         1 TEMP              0 ****  ****    0 ROOT
