@<TRIPOS>MOLECULE
VFS
   44    46     1     0     0
SMALL
No Charge or Current Charge


@<TRIPOS>ATOM
      1 C1         -17.2130    61.5180   -18.9620 ca         1 VFS       0.138100
      2 C2         -18.5280    61.7760   -18.4820 ca         1 VFS       0.002000
      3 C3         -19.4360    62.7560   -19.1310 cc         1 VFS      -0.152000
      4 C4         -19.2660    63.5930   -20.2560 cc         1 VFS       0.273900
      5 C5         -20.7020    63.0050   -18.6730 cd         1 VFS      -0.162000
      6 C6         -18.9650    61.0600   -17.3420 ca         1 VFS      -0.092000
      7 C8         -16.8370    59.8660   -17.1670 ca         1 VFS      -0.114600
      8 C10        -13.7170    57.7310   -16.3540 c3         1 VFS       0.164000
      9 C11        -12.2620    58.1770   -16.6740 c3         1 VFS       0.144600
     10 C12        -13.9820    56.2960   -16.8090 ca         1 VFS      -0.093300
     11 C13        -14.2880    55.2990   -15.8610 ca         1 VFS      -0.090500
     12 C14        -14.5330    53.9770   -16.2730 ca         1 VFS      -0.111500
     13 C15        -14.4780    53.6420   -17.6360 ca         1 VFS      -0.104000
     14 C9         -15.9760    58.8450   -16.4390 c          1 VFS       0.609700
     15 N2         -14.7060    58.6490   -16.9310 ns         1 VFS      -0.498900
     16 C17        -13.9320    55.9520   -18.1770 ca         1 VFS      -0.090500
     17 C16        -14.1780    54.6300   -18.5870 ca         1 VFS      -0.111500
     18 C18        -16.3850    60.5730   -18.3060 ca         1 VFS      -0.178000
     19 O          -16.7540    62.1990   -20.0760 os         1 VFS      -0.336100
     20 C          -15.4430    62.0070   -20.6370 c3         1 VFS       0.147900
     21 C7         -18.1380    60.1270   -16.7000 ca         1 VFS      -0.090000
     22 N1         -21.2220    63.9730   -19.5420 na         1 VFS      -0.002200
     23 N          -20.3170    64.3400   -20.5360 nd         1 VFS      -0.529800
     24 H1         -18.4040    63.6930   -20.8990 h4         1 VFS       0.044100
     25 H2         -21.2750    62.6080   -17.8430 h4         1 VFS       0.155000
     26 H3         -19.9560    61.2140   -16.9300 ha         1 VFS       0.116000
     27 H4         -13.8240    57.7720   -15.2620 h1         1 VFS       0.073700
     28 H5         -12.0860    58.0870   -17.7540 h1         1 VFS       0.032700
     29 H6         -11.5660    57.4940   -16.1690 h1         1 VFS       0.032700
     30 H7         -14.3370    55.5460   -14.8030 ha         1 VFS       0.112000
     31 H8         -14.7680    53.2130   -15.5340 ha         1 VFS       0.112000
     32 H9         -14.6680    52.6190   -17.9530 ha         1 VFS       0.112000
     33 H10        -14.4190    59.2300   -17.7050 hn         1 VFS       0.324500
     34 H11        -13.7060    56.7090   -18.9250 ha         1 VFS       0.112000
     35 H12        -14.1370    54.3730   -19.6440 ha         1 VFS       0.112000
     36 H13        -11.0850    59.7390   -16.4550 ho         1 VFS       0.448000
     37 H14        -15.3870    60.3840   -18.6830 ha         1 VFS       0.115000
     38 H15        -15.3080    62.6550   -21.5120 h1         1 VFS       0.040367
     39 H16        -14.6640    62.2600   -19.9060 h1         1 VFS       0.040367
     40 H17        -15.3040    60.9680   -20.9600 h1         1 VFS       0.040367
     41 H18        -18.5210    59.6020   -15.8260 ha         1 VFS       0.136000
     42 H19        -22.1520    64.3890   -19.4900 hn         1 VFS       0.371000
     43 O1         -12.0250    59.5320   -16.2500 oh         1 VFS      -0.665000
     44 O2         -16.3840    58.2240   -15.4660 o          1 VFS      -0.590100
@<TRIPOS>BOND
     1     1     2 ar  
     2     1    18 ar  
     3     1    19 1   
     4     2     3 1   
     5     2     6 ar  
     6     3     4 1   
     7     3     5 2   
     8     4    23 2   
     9     4    24 1   
    10     5    22 1   
    11     5    25 1   
    12     6    21 ar  
    13     6    26 1   
    14     7    14 1   
    15     7    18 ar  
    16     7    21 ar  
    17     8     9 1   
    18     8    10 1   
    19     8    15 1   
    20     8    27 1   
    21     9    28 1   
    22     9    29 1   
    23     9    43 1   
    24    10    11 ar  
    25    10    16 ar  
    26    11    12 ar  
    27    11    30 1   
    28    12    13 ar  
    29    12    31 1   
    30    13    17 ar  
    31    13    32 1   
    32    14    15 1   
    33    14    44 2   
    34    15    33 1   
    35    16    17 ar  
    36    16    34 1   
    37    17    35 1   
    38    18    37 1   
    39    19    20 1   
    40    20    38 1   
    41    20    39 1   
    42    20    40 1   
    43    21    41 1   
    44    22    23 1   
    45    22    42 1   
    46    36    43 1   
@<TRIPOS>SUBSTRUCTURE
     1 VFS         1 TEMP              0 ****  ****    0 ROOT
