@<TRIPOS>MOLECULE
VFT
   44    46     1     0     0
SMALL
No Charge or Current Charge


@<TRIPOS>ATOM
      1 C5         107.1680    33.5880   -52.5570 ca         1 VFT      -0.101000
      2 C4        -106.7680    32.2690   -52.2880 ca         1 VFT      -0.111000
      3 C22        111.8120    32.8560   -49.9600 ca         1 VFT      -0.076000
      4 C24       -109.5500    31.9820   -50.1540 ca         1 VFT      -0.076000
      5 C21        111.3370    33.9070   -49.1560 ca         1 VFT      -0.101500
      6 C25       -109.0750    33.0340   -49.3530 ca         1 VFT      -0.101500
      7 C6         106.5470    34.6610   -51.8960 ca         1 VFT      -0.113000
      8 C3        -105.7460    32.0240   -51.3540 ca         1 VFT      -0.093000
      9 C15        109.7510    36.0160   -51.6750 cc         1 VFT      -0.201000
     10 C17       -109.1210    37.6680   -53.0320 cc         1 VFT       0.398400
     11 C23        110.9200    31.8900   -50.4640 ca         1 VFT      -0.026000
     12 C20       -109.9650    34.0040   -48.8510 ca         1 VFT      -0.074300
     13 C7         105.5250    34.4230   -50.9560 ca         1 VFT      -0.087000
     14 C2        -105.1240    33.0960   -50.6900 ca         1 VFT       0.126000
     15 C14        109.2710    37.0800   -50.9540 cd         1 VFT       0.201300
     16 C10       -107.1280    35.9290   -48.6090 c          1 VFT       0.609100
     17 C19        109.4460    35.1540   -47.9980 c3         1 VFT       0.135300
     18 C13       -109.1600    37.2130   -49.4470 c3         1 VFT       0.092700
     19 C9         106.1980    36.7810   -49.4920 c3         1 VFT      -0.076400
     20 N27       -111.7910    29.9480   -51.9650 n1         1 VFT      -0.457000
     21 N18        108.8820    38.0990   -51.8030 nd         1 VFT      -0.688000
     22 N16       -109.6520    36.4030   -52.9970 na         1 VFT      -0.292500
     23 N12        108.5340    36.0610   -48.7410 n          1 VFT      -0.407800
     24 O11       -106.6530    35.1240   -47.8170 o          1 VFT      -0.572100
     25 S8         104.7520    35.8020   -50.1080 ss         1 VFT      -0.070000
     26 Cl1       -103.8520    32.7490   -49.5200 cl         1 VFT      -0.191000
     27 H1         107.9560    33.7780   -53.2810 ha         1 VFT       0.109000
     28 H2        -107.2470    31.4390   -52.8020 ha         1 VFT       0.116000
     29 H3         112.8740    32.7960   -50.1920 ha         1 VFT       0.124500
     30 H4        -108.8510    31.2390   -50.5330 ha         1 VFT       0.124500
     31 H5         112.0360    34.6490   -48.7780 ha         1 VFT       0.126500
     32 H6        -108.0130    33.0970   -49.1280 ha         1 VFT       0.126500
     33 H7         106.8550    35.6780   -52.1240 ha         1 VFT       0.139000
     34 H8        -105.4360    31.0040   -51.1430 ha         1 VFT       0.127000
     35 H9         110.1380    35.0560   -51.3610 h4         1 VFT       0.162000
     36 H10       -108.9410    38.2040   -53.9570 h5         1 VFT       0.060100
     37 H11        110.2940    35.7340   -47.6120 h1         1 VFT       0.069700
     38 H12       -108.9390    34.7390   -47.1170 h1         1 VFT       0.069700
     39 H13        108.5940    38.1230   -49.2090 h1         1 VFT       0.057700
     40 H14       -110.1730    37.3690   -49.0550 h1         1 VFT       0.057700
     41 H15        105.8470    37.6310   -48.8960 h1         1 VFT       0.100200
     42 H16       -106.7400    37.1660   -50.3580 h1         1 VFT       0.100200
     43 H18        109.9250    35.8670   -53.8130 hn         1 VFT       0.359000
     44 C26       -111.4040    30.8170   -51.2880 cg         1 VFT       0.324000
@<TRIPOS>BOND
     1     1     2 ar  
     2     1     7 ar  
     3     1    27 1   
     4     2     8 ar  
     5     2    28 1   
     6     3     5 ar  
     7     3    11 ar  
     8     3    29 1   
     9     4     6 ar  
    10     4    11 ar  
    11     4    30 1   
    12     5    12 ar  
    13     5    31 1   
    14     6    12 ar  
    15     6    32 1   
    16     7    13 ar  
    17     7    33 1   
    18     8    14 ar  
    19     8    34 1   
    20     9    15 2   
    21     9    22 1   
    22     9    35 1   
    23    10    21 2   
    24    10    22 1   
    25    10    36 1   
    26    11    44 1   
    27    12    17 1   
    28    13    14 ar  
    29    13    25 1   
    30    14    26 1   
    31    15    18 1   
    32    15    21 1   
    33    16    19 1   
    34    16    23 1   
    35    16    24 2   
    36    17    23 1   
    37    17    37 1   
    38    17    38 1   
    39    18    23 1   
    40    18    39 1   
    41    18    40 1   
    42    19    25 1   
    43    19    41 1   
    44    19    42 1   
    45    20    44 3   
    46    22    43 1   
@<TRIPOS>SUBSTRUCTURE
     1 VFT         1 TEMP              0 ****  ****    0 ROOT
