@<TRIPOS>MOLECULE
VFT
   44    46     1     0     0
SMALL
abcg2


@<TRIPOS>ATOM
      1 C5        -105.9060    33.0750   -52.2200 ca         1 VFT      -0.101000
      2 C4        -104.8270    32.2080   -52.3100 ca         1 VFT      -0.111000
      3 C22       -112.5440    33.3620   -49.7830 ca         1 VFT      -0.076000
      4 C24       -110.5110    32.6690   -50.8960 ca         1 VFT      -0.076000
      5 C21       -111.7940    34.1670   -48.9440 ca         1 VFT      -0.101500
      6 C25       -109.7770    33.4730   -50.0450 ca         1 VFT      -0.101500
      7 C6        -105.8760    34.1520   -51.3470 ca         1 VFT      -0.113000
      8 C3        -103.7070    32.4270   -51.5220 ca         1 VFT      -0.093000
      9 C15       -110.7970    36.7790   -51.3890 cc         1 VFT      -0.201000
     10 C17       -109.4120    35.9690   -52.8760 cc         1 VFT       0.398400
     11 C23       -111.9000    32.6130   -50.7670 ca         1 VFT      -0.026000
     12 C20       -110.4100    34.2360   -49.0650 ca         1 VFT      -0.074300
     13 C7        -104.7650    34.3800   -50.5360 ca         1 VFT      -0.087000
     14 C2        -103.6870    33.5010   -50.6480 ca         1 VFT       0.126000
     15 C14       -109.5320    36.7120   -50.8790 cd         1 VFT       0.201300
     16 C10       -107.3040    35.5080   -48.6920 c          1 VFT       0.609100
     17 C19       -109.6230    35.1070   -48.1160 c3         1 VFT       0.135300
     18 C13       -109.0650    37.0640   -49.5060 c3         1 VFT       0.092700
     19 C9        -106.2810    36.4070   -49.3830 c3         1 VFT      -0.076400
     20 N27       -113.2890    31.1140   -52.3400 n1         1 VFT      -0.457000
     21 N18       -108.6780    36.2080   -51.8200 nd         1 VFT      -0.688000
     22 N16       -110.6990    36.3010   -52.6620 na         1 VFT      -0.292500
     23 N12       -108.5960    35.9070   -48.7530 n          1 VFT      -0.407800
     24 O11       -106.9580    34.4990   -48.1030 o          1 VFT      -0.572100
     25 S8        -104.6240    35.7140   -49.3980 ss         1 VFT      -0.070000
     26 CL1       -102.2770    33.7610   -49.6730 cl         1 VFT      -0.191000
     27 H1        -106.7820    32.9210   -52.8350 ha         1 VFT       0.109000
     28 H2        -104.8480    31.3670   -52.9900 ha         1 VFT       0.116000
     29 H3        -113.6200    33.3200   -49.6830 ha         1 VFT       0.124500
     30 H4        -110.0120    32.0850   -51.6570 ha         1 VFT       0.124500
     31 H5        -112.2970    34.7590   -48.1900 ha         1 VFT       0.126500
     32 H6        -108.7020    33.5030   -50.1540 ha         1 VFT       0.126500
     33 H7        -106.7300    34.8180   -51.3290 ha         1 VFT       0.139000
     34 H8        -102.8530    31.7670   -51.5810 ha         1 VFT       0.127000
     35 H9        -111.7290    37.1030   -50.9580 h4         1 VFT       0.162000
     36 H10       -109.0640    35.5660   -53.8150 h5         1 VFT       0.060100
     37 H11       -110.3070    35.7790   -47.5950 h1         1 VFT       0.069700
     38 H12       -109.1570    34.4800   -47.3550 h1         1 VFT       0.069700
     39 H13       -108.2780    37.8170   -49.5480 h1         1 VFT       0.057700
     40 H14       -109.8830    37.5190   -48.9450 h1         1 VFT       0.057700
     41 H15       -106.1800    37.3410   -48.8210 h1         1 VFT       0.100200
     42 H16       -106.5890    36.6900   -50.3890 h1         1 VFT       0.100200
     43 H18       -111.4540    36.2140   -53.3250 hn         1 VFT       0.359000
     44 C26       -112.6660    31.7840   -51.6390 cg         1 VFT       0.324000
@<TRIPOS>BOND
     1     1     2 ar  
     2     1     7 ar  
     3     1    27 1   
     4     2     8 ar  
     5     2    28 1   
     6     3     5 ar  
     7     3    11 ar  
     8     3    29 1   
     9     4     6 ar  
    10     4    11 ar  
    11     4    30 1   
    12     5    12 ar  
    13     5    31 1   
    14     6    12 ar  
    15     6    32 1   
    16     7    13 ar  
    17     7    33 1   
    18     8    14 ar  
    19     8    34 1   
    20     9    15 2   
    21     9    22 1   
    22     9    35 1   
    23    10    21 2   
    24    10    22 1   
    25    10    36 1   
    26    11    44 1   
    27    12    17 1   
    28    13    14 ar  
    29    13    25 1   
    30    14    26 1   
    31    15    18 1   
    32    15    21 1   
    33    16    19 1   
    34    16    23 1   
    35    16    24 2   
    36    17    23 1   
    37    17    37 1   
    38    17    38 1   
    39    18    23 1   
    40    18    39 1   
    41    18    40 1   
    42    19    25 1   
    43    19    41 1   
    44    19    42 1   
    45    20    44 3   
    46    22    43 1   
@<TRIPOS>SUBSTRUCTURE
     1 VFT         1 TEMP              0 ****  ****    0 ROOT
