@<TRIPOS>MOLECULE
VFU
   38    40     1     0     0
SMALL
abcg2


@<TRIPOS>ATOM
      1 C10         38.2750    -6.6460     7.6080 cx         1 VFU      -0.125900
      2 C13         36.3800    -9.7420    11.5130 cp         1 VFU      -0.117500
      3 C15         37.0070   -12.0720    11.4420 ca         1 VFU      -0.070500
      4 C21         36.6550   -10.8650     9.3910 ca         1 VFU      -0.070500
      5 C22         36.3530    -9.7250    10.1220 ca         1 VFU      -0.086500
      6 C02         34.9080    -7.6990    14.0760 ca         1 VFU       0.416900
      7 C04         36.2130    -6.2530    12.9030 ca         1 VFU       0.420900
      8 C06         36.6000    -7.2960    12.0160 ca         1 VFU      -0.265800
      9 C07         37.5830    -7.1130    10.9390 ce         1 VFU      -0.139200
     10 C08         37.6000    -6.1260    10.0400 c2         1 VFU      -0.203200
     11 C09         38.5760    -5.9970     8.9350 cx         1 VFU      -0.096500
     12 C11         39.4010    -7.1490     8.4560 cx         1 VFU      -0.125900
     13 C12         36.0540    -8.5390    12.3150 cp         1 VFU       0.237500
     14 C14         36.6920   -10.9360    12.1640 ca         1 VFU      -0.086500
     15 C16         36.9950   -12.0370    10.0510 ca         1 VFU      -0.189300
     16 F18         37.4670   -13.0740     7.9850 f          1 VFU      -0.114000
     17 F19         38.4860   -13.8210     9.7260 f          1 VFU      -0.114000
     18 F20         36.3950   -14.2290     9.4500 f          1 VFU      -0.114000
     19 N03         35.3700    -6.4620    13.9070 nb         1 VFU      -0.329000
     20 N05         36.6850    -4.9990    12.7700 nv         1 VFU      -1.061900
     21 N23         35.2230    -8.7580    13.3340 nb         1 VFU      -0.279000
     22 H1          38.5080    -6.0970     6.7050 hc         1 VFU       0.072450
     23 H2          37.3830    -7.2570     7.5460 hc         1 VFU       0.072450
     24 H3          37.2650   -12.9790    11.9730 ha         1 VFU       0.130000
     25 H4          36.6190   -10.8180     8.3120 ha         1 VFU       0.130000
     26 H5          36.0840    -8.8210     9.5940 ha         1 VFU       0.131500
     27 H6          38.3510    -7.8780    10.8710 ha         1 VFU       0.178000
     28 H7          36.8300    -5.3590    10.0640 ha         1 VFU       0.179000
     29 H8          39.0420    -5.0190     8.8630 hc         1 VFU       0.080700
     30 H9          39.2810    -8.1140     8.9340 hc         1 VFU       0.072450
     31 H10         40.4140    -6.9420     8.1360 hc         1 VFU       0.072450
     32 H11         36.7020   -10.9720    13.2450 ha         1 VFU       0.131500
     33 H12         33.8210    -8.8330    15.3610 hn         1 VFU       0.492000
     34 H13         33.9270    -7.1780    15.7800 hn         1 VFU       0.492000
     35 H14         36.5460    -4.3690    13.5430 hn         1 VFU       0.490000
     36 H15         37.4950    -4.8320    12.1970 hn         1 VFU       0.490000
     37 N01         34.0190    -7.8900    15.0760 nv         1 VFU      -1.054900
     38 C17         37.3350   -13.2840     9.2970 c3         1 VFU       0.356300
@<TRIPOS>BOND
     1     1    11 1   
     2     1    12 1   
     3     1    22 1   
     4     1    23 1   
     5     2     5 ar  
     6     2    13 1   
     7     2    14 ar  
     8     3    14 ar  
     9     3    15 ar  
    10     3    24 1   
    11     4     5 ar  
    12     4    15 ar  
    13     4    25 1   
    14     5    26 1   
    15     6    19 ar  
    16     6    21 ar  
    17     6    37 1   
    18     7     8 ar  
    19     7    19 ar  
    20     7    20 1   
    21     8     9 1   
    22     8    13 ar  
    23     9    10 2   
    24     9    27 1   
    25    10    11 1   
    26    10    28 1   
    27    11    12 1   
    28    11    29 1   
    29    12    30 1   
    30    12    31 1   
    31    13    21 ar  
    32    14    32 1   
    33    15    38 1   
    34    16    38 1   
    35    17    38 1   
    36    18    38 1   
    37    20    35 1   
    38    20    36 1   
    39    33    37 1   
    40    34    37 1   
@<TRIPOS>SUBSTRUCTURE
     1 VFU         1 TEMP              0 ****  ****    0 ROOT
