@<TRIPOS>MOLECULE
VFU
   38    40     1     0     0
SMALL
No Charge or Current Charge


@<TRIPOS>ATOM
      1 C10         38.2150    -6.0970     7.5240 cx         1 VFU      -0.125900
      2 C13         36.4380    -9.8130    11.5900 cp         1 VFU      -0.117500
      3 C15         36.9950   -12.2090    11.5380 ca         1 VFU      -0.070500
      4 C21         36.8260   -10.9720     9.4550 ca         1 VFU      -0.070500
      5 C22         36.5070    -9.8080    10.1750 ca         1 VFU      -0.086500
      6 C02         34.8770    -7.6310    14.0600 ca         1 VFU       0.416900
      7 C04         36.1980    -6.2270    12.8880 ca         1 VFU       0.420900
      8 C06         36.6410    -7.2890    12.0740 ca         1 VFU      -0.265800
      9 C07         37.6780    -7.0940    11.0130 ce         1 VFU      -0.139200
     10 C08         37.6080    -6.1660    10.0360 c2         1 VFU      -0.203200
     11 C09         38.6400    -6.0360     8.9730 cx         1 VFU      -0.096500
     12 C11         39.0130    -7.2290     8.1220 cx         1 VFU      -0.125900
     13 C12         36.0940    -8.5730    12.3620 cp         1 VFU       0.237500
     14 C14         36.6750   -11.0420    12.2540 ca         1 VFU      -0.086500
     15 C16         37.0840   -12.1840    10.1300 ca         1 VFU      -0.189300
     16 F18         38.0740   -13.1910     8.1890 f          1 VFU      -0.114000
     17 F19         38.2150   -14.3000    10.0480 f          1 VFU      -0.114000
     18 F20         36.3060   -14.1450     9.0190 f          1 VFU      -0.114000
     19 N03         35.3190    -6.3860    13.8790 nb         1 VFU      -0.329000
     20 N05         36.6760    -4.9650    12.7600 nv         1 VFU      -1.061900
     21 N23         35.2170    -8.7260    13.3740 nb         1 VFU      -0.279000
     22 H1          38.7170    -5.4380     6.8200 hc         1 VFU       0.072450
     23 H2          37.1650    -6.2800     7.3070 hc         1 VFU       0.072450
     24 H3          37.1700   -13.1330    12.0850 ha         1 VFU       0.130000
     25 H4          36.8650   -10.9270     8.3680 ha         1 VFU       0.130000
     26 H5          36.2960    -8.8940     9.6250 ha         1 VFU       0.131500
     27 H6          38.5060    -7.8070    11.0360 ha         1 VFU       0.178000
     28 H7          36.7650    -5.4730     9.9760 ha         1 VFU       0.179000
     29 H8          39.4320    -5.3280     9.2100 hc         1 VFU       0.080700
     30 H9          38.4980    -8.1690     8.3030 hc         1 VFU       0.072450
     31 H10         40.0530    -7.3310     7.8220 hc         1 VFU       0.072450
     32 H11         36.6200   -11.0900    13.3400 ha         1 VFU       0.131500
     33 H12         33.8110    -8.7510    15.3900 hn         1 VFU       0.492000
     34 H13         33.8860    -7.0590    15.7510 hn         1 VFU       0.492000
     35 H14         36.5340    -4.3200    13.5320 hn         1 VFU       0.490000
     36 H15         37.5120    -4.8350    12.1980 hn         1 VFU       0.490000
     37 N01         33.9930    -7.8040    15.0680 nv         1 VFU      -1.054900
     38 C17         37.4230   -13.4570     9.3450 c3         1 VFU       0.356300
@<TRIPOS>BOND
     1     1    11 1   
     2     1    12 1   
     3     1    22 1   
     4     1    23 1   
     5     2     5 ar  
     6     2    13 1   
     7     2    14 ar  
     8     3    14 ar  
     9     3    15 ar  
    10     3    24 1   
    11     4     5 ar  
    12     4    15 ar  
    13     4    25 1   
    14     5    26 1   
    15     6    19 ar  
    16     6    21 ar  
    17     6    37 1   
    18     7     8 ar  
    19     7    19 ar  
    20     7    20 1   
    21     8     9 1   
    22     8    13 ar  
    23     9    10 2   
    24     9    27 1   
    25    10    11 1   
    26    10    28 1   
    27    11    12 1   
    28    11    29 1   
    29    12    30 1   
    30    12    31 1   
    31    13    21 ar  
    32    14    32 1   
    33    15    38 1   
    34    16    38 1   
    35    17    38 1   
    36    18    38 1   
    37    20    35 1   
    38    20    36 1   
    39    33    37 1   
    40    34    37 1   
@<TRIPOS>SUBSTRUCTURE
     1 VFU         1 TEMP              0 ****  ****    0 ROOT
