@<TRIPOS>MOLECULE
VFV
   64    69     1     0     0
SMALL
No Charge or Current Charge


@<TRIPOS>ATOM
      1 CAO         -7.3030    -2.3650    -1.6590 ca         1 VFV      -0.069000
      2 CAK         -8.2880    -3.3510    -1.8440 ca         1 VFV      -0.152500
      3 CBD         -8.6050    -4.2280    -0.7970 ca         1 VFV       0.180000
      4 FAB         -9.5500    -5.1750    -0.9750 f          1 VFV      -0.175000
      5 CAJ         -7.9440    -4.1240     0.4350 ca         1 VFV      -0.152500
      6 CAN         -6.9600    -3.1370     0.6220 ca         1 VFV      -0.069000
      7 CBG         -6.6190    -2.2370    -0.4220 cp         1 VFV      -0.062000
      8 CBJ         -5.5700    -1.1860    -0.2240 cp         1 VFV       0.006000
      9 CAV         -5.4070    -0.5400     1.0250 ca         1 VFV      -0.141000
     10 CBE         -4.4250     0.4460     1.2110 ca         1 VFV       0.181000
     11 FAC         -4.3170     1.0340     2.4230 f          1 VFV      -0.180000
     12 CAR         -4.7070    -0.8020    -1.2790 ca         1 VFV      -0.117000
     13 CAS         -3.7220     0.1830    -1.0960 ca         1 VFV      -0.071000
     14 CBK         -3.5710     0.8220     0.1530 ca         1 VFV      -0.145300
     15 CBN         -2.4960     1.8920     0.3470 c3         1 VFV       0.152000
     16 CAW         -2.7090     3.0970    -0.6040 c3         1 VFV       0.058600
     17 NBO         -1.7310     4.1860    -0.4310 na         1 VFV      -0.170500
     18 CAT         -0.6820     4.4840    -1.2750 cc         1 VFV      -0.250000
     19 CAG         -0.0600     5.5720    -0.7190 cd         1 VFV       0.238900
     20 NAX         -0.6970     5.9540     0.4440 nd         1 VFV      -0.668000
     21 CAU         -1.6970     5.0980     0.6040 cc         1 VFV       0.399400
     22 NBA         -1.1670     1.2930     0.1780 ns         1 VFV      -0.505900
     23 CBC         -0.0560     1.6140     0.9290 c          1 VFV       0.616700
     24 OAA         -0.1250     2.3990     1.8640 o          1 VFV      -0.578100
     25 CBF          1.2450     0.9390     0.5390 ca         1 VFV      -0.133600
     26 CAM          2.4200     1.2220     1.2710 ca         1 VFV      -0.080500
     27 CAQ          3.6440     0.6180     0.9380 ca         1 VFV      -0.078500
     28 CAL          1.3340     0.0300    -0.5430 ca         1 VFV      -0.080500
     29 CAP          2.5600    -0.5740    -0.8740 ca         1 VFV      -0.078500
     30 CBI          3.7300    -0.2890    -0.1400 ca         1 VFV      -0.117500
     31 CBM          5.0070    -0.9240    -0.4930 cc         1 VFV       0.471500
     32 OBB          6.1190    -0.6340     0.2290 os         1 VFV      -0.275000
     33 NAZ          5.2350    -1.7870    -1.4720 nd         1 VFV      -0.352000
     34 NAY          6.5710    -2.0930    -1.4050 nd         1 VFV      -0.359000
     35 CBL          7.0570    -1.3940    -0.3900 cc         1 VFV       0.487500
     36 CBH          8.4430    -1.3710     0.0980 ca         1 VFV      -0.147500
     37 CAI          9.4360    -2.1550    -0.5320 ca         1 VFV      -0.066500
     38 CAF         10.7630    -2.1350    -0.0680 ca         1 VFV      -0.118500
     39 CAD         11.1150    -1.3330     1.0290 ca         1 VFV      -0.084000
     40 CAE         10.1370    -0.5490     1.6620 ca         1 VFV      -0.118500
     41 CAH          8.8090    -0.5670     1.2010 ca         1 VFV      -0.066500
     42 H1          -7.0790    -1.6850    -2.4780 ha         1 VFV       0.120500
     43 H2          -8.8060    -3.4360    -2.7960 ha         1 VFV       0.135500
     44 H3          -8.1920    -4.8080     1.2420 ha         1 VFV       0.135500
     45 H4          -6.4480    -3.0790     1.5800 ha         1 VFV       0.120500
     46 H5          -6.0560    -0.7920     1.8580 ha         1 VFV       0.138000
     47 H6          -4.7890    -1.2850    -2.2490 ha         1 VFV       0.123000
     48 H7          -3.0750     0.4440    -1.9300 ha         1 VFV       0.118000
     49 H8          -2.5670     2.2790     1.3720 h1         1 VFV       0.103700
     50 H9          -2.6620     2.7540    -1.6450 h1         1 VFV       0.072200
     51 H10         -3.7140     3.5050    -0.4380 h1         1 VFV       0.072200
     52 H11         -0.4590     3.9250    -2.1750 h4         1 VFV       0.150000
     53 H12          0.8090     6.1020    -1.0920 h4         1 VFV       0.040100
     54 H13         -2.4170     5.0870     1.4150 h5         1 VFV       0.059100
     55 H14         -1.0400     0.6180    -0.5610 hn         1 VFV       0.318500
     56 H15          2.3890     1.9170     2.1080 ha         1 VFV       0.132500
     57 H16          4.5260     0.8620     1.5270 ha         1 VFV       0.137500
     58 H17          0.4630    -0.2240    -1.1420 ha         1 VFV       0.132500
     59 H18          2.5940    -1.2690    -1.7120 ha         1 VFV       0.137500
     60 H19          9.1840    -2.7840    -1.3840 ha         1 VFV       0.132000
     61 H20         11.5190    -2.7430    -0.5610 ha         1 VFV       0.120000
     62 H21         12.1420    -1.3180     1.3870 ha         1 VFV       0.118000
     63 H22         10.4080     0.0730     2.5130 ha         1 VFV       0.120000
     64 H23          8.0690     0.0490     1.7090 ha         1 VFV       0.132000
@<TRIPOS>BOND
     1     1     2 ar  
     2     1     7 ar  
     3     1    42 1   
     4     2     3 ar  
     5     2    43 1   
     6     3     4 1   
     7     3     5 ar  
     8     5     6 ar  
     9     5    44 1   
    10     6     7 ar  
    11     6    45 1   
    12     7     8 1   
    13     8     9 ar  
    14     8    12 ar  
    15     9    10 ar  
    16     9    46 1   
    17    10    11 1   
    18    10    14 ar  
    19    12    13 ar  
    20    12    47 1   
    21    13    14 ar  
    22    13    48 1   
    23    14    15 1   
    24    15    16 1   
    25    15    22 1   
    26    15    49 1   
    27    16    17 1   
    28    16    50 1   
    29    16    51 1   
    30    17    18 1   
    31    17    21 1   
    32    18    19 2   
    33    18    52 1   
    34    19    20 1   
    35    19    53 1   
    36    20    21 2   
    37    21    54 1   
    38    22    23 1   
    39    22    55 1   
    40    23    24 2   
    41    23    25 1   
    42    25    26 ar  
    43    25    28 ar  
    44    26    27 ar  
    45    26    56 1   
    46    27    30 ar  
    47    27    57 1   
    48    28    29 ar  
    49    28    58 1   
    50    29    30 ar  
    51    29    59 1   
    52    30    31 1   
    53    31    32 1   
    54    31    33 2   
    55    32    35 1   
    56    33    34 1   
    57    34    35 2   
    58    35    36 1   
    59    36    37 ar  
    60    36    41 ar  
    61    37    38 ar  
    62    37    60 1   
    63    38    39 ar  
    64    38    61 1   
    65    39    40 ar  
    66    39    62 1   
    67    40    41 ar  
    68    40    63 1   
    69    41    64 1   
@<TRIPOS>SUBSTRUCTURE
     1 VFV         1 TEMP              0 ****  ****    0 ROOT
