@<TRIPOS>MOLECULE
VFV
   64    69     1     0     0
SMALL
abcg2


@<TRIPOS>ATOM
      1 CAO         -6.4990    -3.1580    -1.1070 ca         1 VFV      -0.069000
      2 CAK         -7.4430    -4.1710    -1.1490 ca         1 VFV      -0.152500
      3 CBD         -8.2530    -4.3650    -0.0460 ca         1 VFV       0.180000
      4 FAB         -9.1730    -5.3420    -0.0790 f          1 VFV      -0.175000
      5 CAJ         -8.1460    -3.5840     1.0870 ca         1 VFV      -0.152500
      6 CAN         -7.1960    -2.5760     1.1110 ca         1 VFV      -0.069000
      7 CBG         -6.3580    -2.3450     0.0180 cp         1 VFV      -0.062000
      8 CBJ         -5.3520    -1.2660     0.0500 cp         1 VFV       0.006000
      9 CAV         -5.6210    -0.0670     0.7110 ca         1 VFV      -0.141000
     10 CBE         -4.6660     0.9260     0.7280 ca         1 VFV       0.181000
     11 FAC         -4.9560     2.0750     1.3640 f          1 VFV      -0.180000
     12 CAR         -4.1130    -1.4130    -0.5730 ca         1 VFV      -0.117000
     13 CAS         -3.1740    -0.3940    -0.5400 ca         1 VFV      -0.071000
     14 CBK         -3.4290     0.8060     0.1140 ca         1 VFV      -0.145300
     15 CBN         -2.4420     1.9530     0.1360 c3         1 VFV       0.152000
     16 CAW         -2.8440     3.0030    -0.9120 c3         1 VFV       0.058600
     17 NBO         -1.9270     4.1180    -0.9390 na         1 VFV      -0.170500
     18 CAT         -0.9250     4.3260    -1.8480 cc         1 VFV      -0.250000
     19 CAG         -0.2650     5.4400    -1.4170 cd         1 VFV       0.238900
     20 NAX         -0.8360     5.9100    -0.2690 nd         1 VFV      -0.668000
     21 CAU         -1.8230     5.0930    -0.0100 cc         1 VFV       0.399400
     22 NBA         -1.0820     1.5420    -0.0970 ns         1 VFV      -0.505900
     23 CBC         -0.2380     1.2190     0.9040 c          1 VFV       0.616700
     24 OAA         -0.5870     1.1340     2.0700 o          1 VFV      -0.578100
     25 CBF          1.1780     0.9780     0.4950 ca         1 VFV      -0.133600
     26 CAM          1.9380     0.0650     1.2200 ca         1 VFV      -0.080500
     27 CAQ          3.2620    -0.1640     0.8920 ca         1 VFV      -0.078500
     28 CAL          1.7720     1.6830    -0.5500 ca         1 VFV      -0.080500
     29 CAP          3.0980     1.4700    -0.8740 ca         1 VFV      -0.078500
     30 CBI          3.8500     0.5390    -0.1590 ca         1 VFV      -0.117500
     31 CBM          5.2410     0.3340    -0.5200 cc         1 VFV       0.471500
     32 OBB          6.0030    -0.5220     0.1790 os         1 VFV      -0.275000
     33 NAZ          5.9120     0.8880    -1.4700 nd         1 VFV      -0.352000
     34 NAY          7.1760     0.3850    -1.4080 nd         1 VFV      -0.359000
     35 CBL          7.2000    -0.4460    -0.4210 cc         1 VFV       0.487500
     36 CBH          8.3120    -1.2440     0.0620 ca         1 VFV      -0.147500
     37 CAI          9.5430    -1.1530    -0.5910 ca         1 VFV      -0.066500
     38 CAF         10.6180    -1.9040    -0.1490 ca         1 VFV      -0.118500
     39 CAD         10.4760    -2.7490     0.9460 ca         1 VFV      -0.084000
     40 CAE          9.2530    -2.8400     1.5970 ca         1 VFV      -0.118500
     41 CAH          8.1710    -2.0910     1.1610 ca         1 VFV      -0.066500
     42 H1          -5.8780    -2.9890    -1.9780 ha         1 VFV       0.120500
     43 H2          -7.5530    -4.7920    -2.0280 ha         1 VFV       0.135500
     44 H3          -8.7870    -3.7610     1.9410 ha         1 VFV       0.135500
     45 H4          -7.0980    -1.9750     2.0060 ha         1 VFV       0.120500
     46 H5          -6.5740     0.1060     1.1960 ha         1 VFV       0.138000
     47 H6          -3.8620    -2.3400    -1.0720 ha         1 VFV       0.123000
     48 H7          -2.2160    -0.5490    -1.0200 ha         1 VFV       0.118000
     49 H8          -2.4670     2.4230     1.1220 h1         1 VFV       0.103700
     50 H9          -2.8680     2.5550    -1.9060 h1         1 VFV       0.072200
     51 H10         -3.8470     3.3680    -0.6980 h1         1 VFV       0.072200
     52 H11         -0.7900     3.6890    -2.7080 h4         1 VFV       0.150000
     53 H12          0.5800     5.9260    -1.8780 h4         1 VFV       0.040100
     54 H13         -2.5020     5.1610     0.8280 h5         1 VFV       0.059100
     55 H14         -0.7630     1.4470    -1.0490 hn         1 VFV       0.318500
     56 H15          1.4920    -0.4790     2.0420 ha         1 VFV       0.132500
     57 H16          3.8280    -0.8890     1.4610 ha         1 VFV       0.137500
     58 H17          1.2160     2.4320    -1.1010 ha         1 VFV       0.132500
     59 H18          3.5510     2.0330    -1.6790 ha         1 VFV       0.137500
     60 H19          9.6530    -0.4970    -1.4440 ha         1 VFV       0.132000
     61 H20         11.5690    -1.8290    -0.6580 ha         1 VFV       0.120000
     62 H21         11.3160    -3.3370     1.2880 ha         1 VFV       0.118000
     63 H22          9.1400    -3.4950     2.4500 ha         1 VFV       0.120000
     64 H23          7.2250    -2.1740     1.6800 ha         1 VFV       0.132000
@<TRIPOS>BOND
     1     1     2 ar  
     2     1     7 ar  
     3     1    42 1   
     4     2     3 ar  
     5     2    43 1   
     6     3     4 1   
     7     3     5 ar  
     8     5     6 ar  
     9     5    44 1   
    10     6     7 ar  
    11     6    45 1   
    12     7     8 1   
    13     8     9 ar  
    14     8    12 ar  
    15     9    10 ar  
    16     9    46 1   
    17    10    11 1   
    18    10    14 ar  
    19    12    13 ar  
    20    12    47 1   
    21    13    14 ar  
    22    13    48 1   
    23    14    15 1   
    24    15    16 1   
    25    15    22 1   
    26    15    49 1   
    27    16    17 1   
    28    16    50 1   
    29    16    51 1   
    30    17    18 1   
    31    17    21 1   
    32    18    19 2   
    33    18    52 1   
    34    19    20 1   
    35    19    53 1   
    36    20    21 2   
    37    21    54 1   
    38    22    23 1   
    39    22    55 1   
    40    23    24 2   
    41    23    25 1   
    42    25    26 ar  
    43    25    28 ar  
    44    26    27 ar  
    45    26    56 1   
    46    27    30 ar  
    47    27    57 1   
    48    28    29 ar  
    49    28    58 1   
    50    29    30 ar  
    51    29    59 1   
    52    30    31 1   
    53    31    32 1   
    54    31    33 2   
    55    32    35 1   
    56    33    34 1   
    57    34    35 2   
    58    35    36 1   
    59    36    37 ar  
    60    36    41 ar  
    61    37    38 ar  
    62    37    60 1   
    63    38    39 ar  
    64    38    61 1   
    65    39    40 ar  
    66    39    62 1   
    67    40    41 ar  
    68    40    63 1   
    69    41    64 1   
@<TRIPOS>SUBSTRUCTURE
     1 VFV         1 TEMP              0 ****  ****    0 ROOT
