@<TRIPOS>MOLECULE
VFW
   55    57     1     0     0
SMALL
abcg2


@<TRIPOS>ATOM
      1 C29        -50.4780     2.9320    -5.3120 ca         1 VFW      -0.144000
      2 C28        -51.6580     3.5920    -5.6090 ca         1 VFW      -0.078000
      3 C30        -49.2760     3.4580    -5.7730 ca         1 VFW      -0.082000
      4 C17        -55.9990     9.2040    -5.1100 ca         1 VFW      -0.078000
      5 C21        -54.4490     7.6720    -4.1230 ca         1 VFW      -0.078000
      6 C18        -57.0560     8.5470    -4.4970 ca         1 VFW      -0.108500
      7 C20        -55.4890     7.0150    -3.4910 ca         1 VFW      -0.108500
      8 C27        -51.6420     4.7630    -6.3570 ca         1 VFW      -0.186000
      9 C25        -59.7060     6.4250    -2.1920 cc         1 VFW       0.519900
     10 C23        -57.9680     5.4520    -2.7990 cd         1 VFW       0.423400
     11 C16        -54.6890     8.7730    -4.9410 ca         1 VFW      -0.115300
     12 C3         -49.2260     4.6240    -6.5250 ca         1 VFW      -0.098300
     13 C19        -56.7950     7.4480    -3.6930 ca         1 VFW       0.019800
     14 C4         -50.4330     5.2750    -6.8160 ca         1 VFW       0.141100
     15 C11        -54.9760     7.5250    -7.8150 c          1 VFW       0.572100
     16 C7         -51.9270     7.9440    -6.6400 c          1 VFW       0.579100
     17 C1         -47.6470     4.7660    -8.4920 c3         1 VFW      -0.084100
     18 C14        -57.2740     6.9060    -8.3310 c3         1 VFW       0.091300
     19 C2         -47.9110     5.1490    -7.0360 c3         1 VFW      -0.020100
     20 C15        -53.5510     9.4590    -5.6510 c3         1 VFW       0.139300
     21 C10        -53.9170     8.6210    -7.9300 c3         1 VFW       0.020000
     22 C6         -51.4700     7.1420    -7.8610 c3         1 VFW       0.084600
     23 N24        -59.1250     5.2050    -2.2350 nc         1 VFW      -0.696000
     24 N26        -58.9790     7.3930    -2.6910 nd         1 VFW      -0.534800
     25 N22        -57.8620     6.7620    -3.0740 na         1 VFW       0.033500
     26 N13        -56.1680     7.8340    -8.3310 ns         1 VFW      -0.500900
     27 N9         -53.0510     8.6830    -6.7790 n          1 VFW      -0.399800
     28 O12        -54.7170     6.4360    -7.3260 o          1 VFW      -0.597100
     29 O8         -51.2630     7.9310    -5.6190 o          1 VFW      -0.567100
     30 O5         -50.3250     6.3950    -7.5710 os         1 VFW      -0.321100
     31 H1         -50.4860     2.0220    -4.7260 ha         1 VFW       0.112000
     32 H2         -52.6060     3.2050    -5.2570 ha         1 VFW       0.110000
     33 H3         -48.3460     2.9520    -5.5400 ha         1 VFW       0.110000
     34 H4         -56.2050    10.0610    -5.7400 ha         1 VFW       0.125500
     35 H5         -53.4360     7.3270    -3.9630 ha         1 VFW       0.125500
     36 H6         -58.0710     8.8850    -4.6520 ha         1 VFW       0.133000
     37 H7         -55.2770     6.1820    -2.8330 ha         1 VFW       0.133000
     38 H8         -52.5830     5.2570    -6.5640 ha         1 VFW       0.134000
     39 H9         -60.6870     6.6030    -1.7790 h5         1 VFW       0.065100
     40 H10        -57.2010     4.7310    -3.0380 h5         1 VFW       0.070100
     41 H11        -46.6820     5.1510    -8.8250 hc         1 VFW       0.032033
     42 H12        -47.6330     3.6820    -8.6120 hc         1 VFW       0.032033
     43 H13        -48.4120     5.1660    -9.1570 hc         1 VFW       0.032033
     44 H14        -58.1100     7.3650    -8.8500 h1         1 VFW       0.044700
     45 H15        -57.0170     5.9800    -8.8460 h1         1 VFW       0.044700
     46 H16        -57.5910     6.6590    -7.3160 h1         1 VFW       0.044700
     47 H17        -47.1100     4.7460    -6.4120 hc         1 VFW       0.047700
     48 H18        -47.8630     6.2340    -6.9290 hc         1 VFW       0.047700
     49 H19        -52.7270     9.6400    -4.9640 h1         1 VFW       0.070200
     50 H20        -53.8770    10.4300    -6.0290 h1         1 VFW       0.070200
     51 H21        -53.3450     8.4410    -8.8420 h1         1 VFW       0.064200
     52 H22        -54.3770     9.6010    -8.0660 h1         1 VFW       0.064200
     53 H23        -51.1840     7.8360    -8.6570 h1         1 VFW       0.074200
     54 H24        -52.2760     6.5180    -8.2540 h1         1 VFW       0.074200
     55 H25        -56.3340     8.7690    -8.6640 hn         1 VFW       0.314500
@<TRIPOS>BOND
     1     1     2 ar  
     2     1     3 ar  
     3     1    31 1   
     4     2     8 ar  
     5     2    32 1   
     6     3    12 ar  
     7     3    33 1   
     8     4     6 ar  
     9     4    11 ar  
    10     4    34 1   
    11     5     7 ar  
    12     5    11 ar  
    13     5    35 1   
    14     6    13 ar  
    15     6    36 1   
    16     7    13 ar  
    17     7    37 1   
    18     8    14 ar  
    19     8    38 1   
    20     9    23 1   
    21     9    24 2   
    22     9    39 1   
    23    10    23 2   
    24    10    25 1   
    25    10    40 1   
    26    11    20 1   
    27    12    14 ar  
    28    12    19 1   
    29    13    25 1   
    30    14    30 1   
    31    15    21 1   
    32    15    26 1   
    33    15    28 2   
    34    16    22 1   
    35    16    27 1   
    36    16    29 2   
    37    17    19 1   
    38    17    41 1   
    39    17    42 1   
    40    17    43 1   
    41    18    26 1   
    42    18    44 1   
    43    18    45 1   
    44    18    46 1   
    45    19    47 1   
    46    19    48 1   
    47    20    27 1   
    48    20    49 1   
    49    20    50 1   
    50    21    27 1   
    51    21    51 1   
    52    21    52 1   
    53    22    30 1   
    54    22    53 1   
    55    22    54 1   
    56    24    25 1   
    57    26    55 1   
@<TRIPOS>SUBSTRUCTURE
     1 VFW         1 TEMP              0 ****  ****    0 ROOT
