@<TRIPOS>MOLECULE
VFW
   55    57     1     0     0
SMALL
No Charge or Current Charge


@<TRIPOS>ATOM
      1 C29        -50.3590     2.8740    -5.2870 ca         1 VFW      -0.144000
      2 C28        -51.5710     3.5450    -5.5060 ca         1 VFW      -0.078000
      3 C30        -49.1700     3.3730    -5.8420 ca         1 VFW      -0.082000
      4 C17        -56.0850     9.3510    -4.8640 ca         1 VFW      -0.078000
      5 C21        -54.5130     7.7990    -3.8470 ca         1 VFW      -0.078000
      6 C18        -57.1450     8.7100    -4.2010 ca         1 VFW      -0.108500
      7 C20        -55.5730     7.1580    -3.1840 ca         1 VFW      -0.108500
      8 C27        -51.5960     4.7160    -6.2810 ca         1 VFW      -0.186000
      9 C25        -59.6560     6.4470    -1.7130 cc         1 VFW       0.519900
     10 C23        -58.1780     5.6340    -2.9940 cd         1 VFW       0.423400
     11 C16        -54.7630     8.8970    -4.6920 ca         1 VFW      -0.115300
     12 C3         -49.1810     4.5480    -6.6190 ca         1 VFW      -0.098300
     13 C19        -56.8970     7.6070    -3.3620 ca         1 VFW       0.019800
     14 C4         -50.4020     5.2280    -6.8410 ca         1 VFW       0.141100
     15 C11        -54.9980     7.5210    -7.8980 c          1 VFW       0.572100
     16 C7         -51.9820     7.9980    -6.5470 c          1 VFW       0.579100
     17 C1         -47.6670     4.6060    -8.6690 c3         1 VFW      -0.084100
     18 C14        -56.9120     6.5290    -9.1890 c3         1 VFW       0.091300
     19 C2         -47.8690     5.0630    -7.2110 c3         1 VFW      -0.020100
     20 C15        -53.6140     9.5690    -5.4300 c3         1 VFW       0.139300
     21 C10        -54.0820     8.7640    -7.7850 c3         1 VFW       0.020000
     22 C6         -51.5560     7.2110    -7.8210 c3         1 VFW       0.084600
     23 N24        -59.2720     5.2850    -2.3360 nc         1 VFW      -0.696000
     24 N26        -58.9090     7.5220    -1.9140 nd         1 VFW      -0.534800
     25 N22        -57.9550     6.9700    -2.7140 na         1 VFW       0.033500
     26 N13        -55.9430     7.5900    -8.8980 ns         1 VFW      -0.500900
     27 N9         -53.1600     8.7900    -6.6080 n          1 VFW      -0.399800
     28 O12        -54.8910     6.5350    -7.1820 o          1 VFW      -0.597100
     29 O8         -51.3100     7.9670    -5.5210 o          1 VFW      -0.567100
     30 O5         -50.3880     6.3750    -7.6170 os         1 VFW      -0.321100
     31 H1         -50.3410     1.9660    -4.6890 ha         1 VFW       0.112000
     32 H2         -52.4930     3.1560    -5.0770 ha         1 VFW       0.110000
     33 H3         -48.2360     2.8420    -5.6690 ha         1 VFW       0.110000
     34 H4         -56.2940    10.1970    -5.5160 ha         1 VFW       0.125500
     35 H5         -53.4960     7.4380    -3.7100 ha         1 VFW       0.125500
     36 H6         -58.1630     9.0670    -4.3420 ha         1 VFW       0.133000
     37 H7         -55.3630     6.3130    -2.5320 ha         1 VFW       0.133000
     38 H8         -52.5510     5.2080    -6.4350 ha         1 VFW       0.134000
     39 H9         -60.5500     6.4420    -1.0980 h5         1 VFW       0.065100
     40 H10        -57.5470     5.0310    -3.6380 h5         1 VFW       0.070100
     41 H11        -46.7150     4.9840    -9.0600 hc         1 VFW       0.032033
     42 H12        -47.6550     3.5110    -8.7310 hc         1 VFW       0.032033
     43 H13        -48.4750     4.9800    -9.3080 hc         1 VFW       0.032033
     44 H14        -57.5540     6.8370   -10.0240 h1         1 VFW       0.044700
     45 H15        -56.3810     5.6080    -9.4610 h1         1 VFW       0.044700
     46 H16        -57.5330     6.3440    -8.3030 h1         1 VFW       0.044700
     47 H17        -47.0190     4.7130    -6.6130 hc         1 VFW       0.047700
     48 H18        -47.8310     6.1580    -7.1700 hc         1 VFW       0.047700
     49 H19        -52.7830     9.7330    -4.7320 h1         1 VFW       0.070200
     50 H20        -53.9300    10.5650    -5.7690 h1         1 VFW       0.070200
     51 H21        -53.5070     8.8480    -8.7150 h1         1 VFW       0.064200
     52 H22        -54.7400     9.6420    -7.7440 h1         1 VFW       0.064200
     53 H23        -51.3420     7.9590    -8.5930 h1         1 VFW       0.074200
     54 H24        -52.4010     6.6120    -8.1770 h1         1 VFW       0.074200
     55 H25        -55.9670     8.4360    -9.4570 hn         1 VFW       0.314500
@<TRIPOS>BOND
     1     1     2 ar  
     2     1     3 ar  
     3     1    31 1   
     4     2     8 ar  
     5     2    32 1   
     6     3    12 ar  
     7     3    33 1   
     8     4     6 ar  
     9     4    11 ar  
    10     4    34 1   
    11     5     7 ar  
    12     5    11 ar  
    13     5    35 1   
    14     6    13 ar  
    15     6    36 1   
    16     7    13 ar  
    17     7    37 1   
    18     8    14 ar  
    19     8    38 1   
    20     9    23 1   
    21     9    24 2   
    22     9    39 1   
    23    10    23 2   
    24    10    25 1   
    25    10    40 1   
    26    11    20 1   
    27    12    14 ar  
    28    12    19 1   
    29    13    25 1   
    30    14    30 1   
    31    15    21 1   
    32    15    26 1   
    33    15    28 2   
    34    16    22 1   
    35    16    27 1   
    36    16    29 2   
    37    17    19 1   
    38    17    41 1   
    39    17    42 1   
    40    17    43 1   
    41    18    26 1   
    42    18    44 1   
    43    18    45 1   
    44    18    46 1   
    45    19    47 1   
    46    19    48 1   
    47    20    27 1   
    48    20    49 1   
    49    20    50 1   
    50    21    27 1   
    51    21    51 1   
    52    21    52 1   
    53    22    30 1   
    54    22    53 1   
    55    22    54 1   
    56    24    25 1   
    57    26    55 1   
@<TRIPOS>SUBSTRUCTURE
     1 VFW         1 TEMP              0 ****  ****    0 ROOT
