@<TRIPOS>MOLECULE
VFX
   47    48     1     0     0
SMALL
abcg2


@<TRIPOS>ATOM
      1 C01         21.3090   -14.2970    32.8590 c3         1 VFX       0.148900
      2 O02         21.9000   -14.0560    34.1180 os         1 VFX      -0.341100
      3 C03         21.3090   -13.1710    34.9460 ca         1 VFX       0.139100
      4 C04         21.9230   -12.9700    36.1830 ca         1 VFX      -0.171500
      5 C05         21.3870   -12.0810    37.0960 ca         1 VFX      -0.071500
      6 C06         20.2180   -11.3630    36.8240 ca         1 VFX      -0.114300
      7 C07         19.6030   -10.3820    37.8000 c3         1 VFX       0.004600
      8 C08         20.6910    -9.3780    38.2190 c3         1 VFX       0.176800
      9 N09         20.2630    -8.2700    39.0470 n3         1 VFX      -0.700600
     10 C10         19.4170    -7.3410    38.3310 c3         1 VFX       0.151600
     11 C11         21.4050    -7.5840    39.6110 c3         1 VFX       0.151600
     12 C12         18.8330   -11.0600    38.9730 c6         1 VFX       0.209000
     13 C13         19.7540   -11.4720    40.1280 c6         1 VFX      -0.106400
     14 C14         19.0120   -12.1950    41.2520 c6         1 VFX      -0.076900
     15 C15         18.2360   -13.4000    40.7320 c6         1 VFX      -0.078400
     16 C16         17.2980   -13.0000    39.5990 c6         1 VFX      -0.076900
     17 C17         18.0660   -12.2990    38.4800 c6         1 VFX      -0.106400
     18 O18         17.8970   -10.0810    39.4090 oh         1 VFX      -0.658000
     19 C19         19.6320   -11.5690    35.5810 ca         1 VFX      -0.071500
     20 C20         20.1540   -12.4570    34.6460 ca         1 VFX      -0.171500
     21 H1          21.9280   -15.0410    32.3630 h1         1 VFX       0.039700
     22 H2          20.2930   -14.6920    32.9510 h1         1 VFX       0.039700
     23 H3          21.2800   -13.3960    32.2400 h1         1 VFX       0.039700
     24 H4          22.8280   -13.5140    36.4230 ha         1 VFX       0.121500
     25 H5          21.9020   -11.9560    38.0400 ha         1 VFX       0.112500
     26 H6          18.8360    -9.8420    37.2350 hc         1 VFX       0.065700
     27 H7          21.4730    -9.9120    38.7650 h1         1 VFX       0.028700
     28 H8          21.1750    -9.0160    37.2930 h1         1 VFX       0.028700
     29 H10         19.0920    -6.5430    39.0000 h1         1 VFX       0.028867
     30 H11         19.9250    -6.8710    37.4730 h1         1 VFX       0.028867
     31 H12         18.5220    -7.8370    37.9610 h1         1 VFX       0.028867
     32 H13         22.0060    -8.2770    40.2030 h1         1 VFX       0.028867
     33 H14         22.0650    -7.1320    38.8520 h1         1 VFX       0.028867
     34 H15         21.0700    -6.7840    40.2730 h1         1 VFX       0.028867
     35 H16         20.5330   -12.1360    39.7410 hc         1 VFX       0.052200
     36 H17         20.2590   -10.5920    40.5290 hc         1 VFX       0.052200
     37 H18         19.7300   -12.5050    42.0140 hc         1 VFX       0.037950
     38 H19         18.3260   -11.5060    41.7590 hc         1 VFX       0.037950
     39 H20         17.6770   -13.8720    41.5440 hc         1 VFX       0.040200
     40 H21         18.9440   -14.1490    40.3610 hc         1 VFX       0.040200
     41 H22         16.4950   -12.3630    39.9880 hc         1 VFX       0.037950
     42 H23         16.7960   -13.8810    39.1930 hc         1 VFX       0.037950
     43 H24         17.3880   -12.0130    37.6690 hc         1 VFX       0.052200
     44 H25         18.7700   -13.0170    38.0540 hc         1 VFX       0.052200
     45 H26         17.3690   -10.4480    40.1240 ho         1 VFX       0.441000
     46 H27         18.7310   -11.0250    35.3230 ha         1 VFX       0.112500
     47 H28         19.6480   -12.5700    33.6970 ha         1 VFX       0.121500
@<TRIPOS>BOND
     1     1     2 1   
     2     1    21 1   
     3     1    22 1   
     4     1    23 1   
     5     2     3 1   
     6     3     4 ar  
     7     3    20 ar  
     8     4     5 ar  
     9     4    24 1   
    10     5     6 ar  
    11     5    25 1   
    12     6     7 1   
    13     6    19 ar  
    14     7     8 1   
    15     7    12 1   
    16     7    26 1   
    17     8     9 1   
    18     8    27 1   
    19     8    28 1   
    20     9    10 1   
    21     9    11 1   
    22    10    29 1   
    23    10    30 1   
    24    10    31 1   
    25    11    32 1   
    26    11    33 1   
    27    11    34 1   
    28    12    13 1   
    29    12    17 1   
    30    12    18 1   
    31    13    14 1   
    32    13    35 1   
    33    13    36 1   
    34    14    15 1   
    35    14    37 1   
    36    14    38 1   
    37    15    16 1   
    38    15    39 1   
    39    15    40 1   
    40    16    17 1   
    41    16    41 1   
    42    16    42 1   
    43    17    43 1   
    44    17    44 1   
    45    18    45 1   
    46    19    20 ar  
    47    19    46 1   
    48    20    47 1   
@<TRIPOS>SUBSTRUCTURE
     1 VFX         1 TEMP              0 ****  ****    0 ROOT
