@<TRIPOS>MOLECULE
VFX
   47    48     1     0     0
SMALL
No Charge or Current Charge


@<TRIPOS>ATOM
      1 C01         21.3460   -14.3950    32.8350 c3         1 VFX       0.148900
      2 O02         21.9600   -14.0460    34.0890 os         1 VFX      -0.341100
      3 C03         21.3790   -13.1560    34.9690 ca         1 VFX       0.139100
      4 C04         22.0550   -12.8810    36.1670 ca         1 VFX      -0.171500
      5 C05         21.5140   -11.9850    37.1040 ca         1 VFX      -0.071500
      6 C06         20.2780   -11.3480    36.8560 ca         1 VFX      -0.114300
      7 C07         19.6570   -10.3610    37.8650 c3         1 VFX       0.004600
      8 C08         20.7390    -9.3110    38.2960 c3         1 VFX       0.176800
      9 N09         20.2920    -8.0790    39.0050 n3         1 VFX      -0.700600
     10 C10         19.3780    -7.2240    38.2110 c3         1 VFX       0.151600
     11 C11         21.4310    -7.3080    39.5500 c3         1 VFX       0.151600
     12 C12         18.8560   -11.0760    39.0390 c6         1 VFX       0.209000
     13 C13         19.7940   -11.7050    40.1210 c6         1 VFX      -0.106400
     14 C14         19.0190   -12.4600    41.2360 c6         1 VFX      -0.076900
     15 C15         18.0910   -13.5450    40.6410 c6         1 VFX      -0.078400
     16 C16         17.1290   -12.9440    39.5900 c6         1 VFX      -0.076900
     17 C17         17.9160   -12.1960    38.4790 c6         1 VFX      -0.106400
     18 O18         18.0180   -10.1040    39.6720 oh         1 VFX      -0.658000
     19 C19         19.6050   -11.6240    35.6460 ca         1 VFX      -0.071500
     20 C20         20.1460   -12.5210    34.7090 ca         1 VFX      -0.171500
     21 H1          21.9720   -15.1140    32.2930 h1         1 VFX       0.039700
     22 H2          20.3620   -14.8540    32.9970 h1         1 VFX       0.039700
     23 H3          21.2220   -13.5070    32.2010 h1         1 VFX       0.039700
     24 H4          23.0050   -13.3670    36.3710 ha         1 VFX       0.121500
     25 H5          22.0640   -11.7940    38.0220 ha         1 VFX       0.112500
     26 H6          18.9120    -9.7940    37.2970 hc         1 VFX       0.065700
     27 H7          21.4800    -9.8260    38.9200 h1         1 VFX       0.028700
     28 H8          21.2760    -9.0040    37.3870 h1         1 VFX       0.028700
     29 H10         19.0960    -6.3280    38.7800 h1         1 VFX       0.028867
     30 H11         19.8580    -6.9000    37.2780 h1         1 VFX       0.028867
     31 H12         18.4520    -7.7560    37.9590 h1         1 VFX       0.028867
     32 H13         22.0460    -7.9360    40.2080 h1         1 VFX       0.028867
     33 H14         22.0700    -6.9280    38.7410 h1         1 VFX       0.028867
     34 H15         21.0750    -6.4520    40.1390 h1         1 VFX       0.028867
     35 H16         20.4880   -12.4100    39.6450 hc         1 VFX       0.052200
     36 H17         20.4150   -10.9280    40.5870 hc         1 VFX       0.052200
     37 H18         19.7340   -12.9270    41.9280 hc         1 VFX       0.037950
     38 H19         18.4310   -11.7540    41.8380 hc         1 VFX       0.037950
     39 H20         17.5150   -14.0250    41.4440 hc         1 VFX       0.040200
     40 H21         18.6970   -14.3350    40.1770 hc         1 VFX       0.040200
     41 H22         16.4150   -12.2660    40.0780 hc         1 VFX       0.037950
     42 H23         16.5290   -13.7460    39.1400 hc         1 VFX       0.037950
     43 H24         17.2110   -11.7670    37.7550 hc         1 VFX       0.052200
     44 H25         18.5050   -12.9410    37.9280 hc         1 VFX       0.052200
     45 H26         17.6860   -10.5320    40.4860 ho         1 VFX       0.441000
     46 H27         18.6520   -11.1450    35.4300 ha         1 VFX       0.112500
     47 H28         19.5970   -12.7090    33.7920 ha         1 VFX       0.121500
@<TRIPOS>BOND
     1     1     2 1   
     2     1    21 1   
     3     1    22 1   
     4     1    23 1   
     5     2     3 1   
     6     3     4 ar  
     7     3    20 ar  
     8     4     5 ar  
     9     4    24 1   
    10     5     6 ar  
    11     5    25 1   
    12     6     7 1   
    13     6    19 ar  
    14     7     8 1   
    15     7    12 1   
    16     7    26 1   
    17     8     9 1   
    18     8    27 1   
    19     8    28 1   
    20     9    10 1   
    21     9    11 1   
    22    10    29 1   
    23    10    30 1   
    24    10    31 1   
    25    11    32 1   
    26    11    33 1   
    27    11    34 1   
    28    12    13 1   
    29    12    17 1   
    30    12    18 1   
    31    13    14 1   
    32    13    35 1   
    33    13    36 1   
    34    14    15 1   
    35    14    37 1   
    36    14    38 1   
    37    15    16 1   
    38    15    39 1   
    39    15    40 1   
    40    16    17 1   
    41    16    41 1   
    42    16    42 1   
    43    17    43 1   
    44    17    44 1   
    45    18    45 1   
    46    19    20 ar  
    47    19    46 1   
    48    20    47 1   
@<TRIPOS>SUBSTRUCTURE
     1 VFX         1 TEMP              0 ****  ****    0 ROOT
