@<TRIPOS>MOLECULE
VFZ
   43    45     1     0     0
SMALL
abcg2


@<TRIPOS>ATOM
      1 CL         -37.2210    49.9830    29.5640 cl         1 VFZ      -0.185000
      2 C16        -35.5070    50.2150    29.6850 ca         1 VFZ       0.124000
      3 C15        -34.7560    49.3060    30.4090 ca         1 VFZ      -0.086000
      4 C14        -33.3850    49.4820    30.5160 ca         1 VFZ      -0.106000
      5 C13        -32.7850    50.5660    29.8940 ca         1 VFZ      -0.095000
      6 C12        -33.5430    51.4700    29.1660 ca         1 VFZ      -0.111000
      7 C11        -34.9230    51.3140    29.0520 ca         1 VFZ      -0.091000
      8 S          -35.9920    52.4080    28.1810 ss         1 VFZ      -0.053000
      9 C10        -34.9030    53.7250    27.6330 c3         1 VFZ      -0.084400
     10 C9         -34.0830    53.3650    26.3990 c          1 VFZ       0.603100
     11 O1         -34.1460    52.2610    25.8970 o          1 VFZ      -0.548100
     12 N3         -33.2840    54.3400    25.8920 n          1 VFZ      -0.422800
     13 C2         -33.1400    55.6700    26.4550 c3         1 VFZ       0.086700
     14 C1         -33.8990    56.6920    25.6900 cc         1 VFZ       0.364300
     15 N2         -33.4620    57.7150    25.0640 nd         1 VFZ      -0.319000
     16 N1         -34.5460    58.3520    24.5050 nd         1 VFZ      -0.430000
     17 O2         -35.2470    56.5870    25.5920 os         1 VFZ      -0.311000
     18 C          -35.5800    57.6480    24.8440 cc         1 VFZ       0.662900
     19 N          -36.8790    57.8810    24.6000 nv         1 VFZ      -1.035900
     20 C3         -32.5230    54.0860    24.6860 c3         1 VFZ       0.155200
     21 C4         -31.1020    53.6600    24.9440 cc         1 VFZ      -0.216200
     22 C8         -30.1570    53.6830    23.8830 cc         1 VFZ      -0.085000
     23 C7         -28.8690    53.2900    24.0590 cd         1 VFZ      -0.310200
     24 C6         -28.3920    52.8310    25.3390 c          1 VFZ       0.551200
     25 O          -27.2490    52.4630    25.5920 o          1 VFZ      -0.556000
     26 N4         -29.3660    52.8390    26.3180 ns         1 VFZ      -0.366100
     27 C5         -30.6530    53.2260    26.1480 cd         1 VFZ      -0.018400
     28 H1         -35.2430    48.4670    30.8880 ha         1 VFZ       0.131000
     29 H2         -32.7950    48.7740    31.0830 ha         1 VFZ       0.122000
     30 H3         -31.7150    50.7140    29.9680 ha         1 VFZ       0.114000
     31 H4         -33.0390    52.3030    28.6980 ha         1 VFZ       0.104000
     32 H5         -34.2810    54.0670    28.4620 h1         1 VFZ       0.094700
     33 H6         -35.5800    54.5530    27.4070 h1         1 VFZ       0.094700
     34 H7         -33.4350    55.6860    27.5030 h1         1 VFZ       0.082700
     35 H8         -32.0880    55.9600    26.4330 h1         1 VFZ       0.082700
     36 H9         -37.0770    58.5610    23.8840 hn         1 VFZ       0.496500
     37 H10        -37.5120    57.0960    24.6180 hn         1 VFZ       0.496500
     38 H11        -32.5190    55.0000    24.0860 h1         1 VFZ       0.072700
     39 H12        -33.0380    53.3340    24.0880 h1         1 VFZ       0.072700
     40 H13        -30.4770    54.0270    22.9060 ha         1 VFZ       0.187000
     41 H14        -28.1630    53.3170    23.2400 ha         1 VFZ       0.211000
     42 H16        -31.2700    53.1680    27.0340 h4         1 VFZ       0.195000
     43 H15        -29.0820    52.5290    27.2380 hn         1 VFZ       0.325500
@<TRIPOS>BOND
     1     1     2 1   
     2     2     3 ar  
     3     2     7 ar  
     4     3     4 ar  
     5     3    28 1   
     6     4     5 ar  
     7     4    29 1   
     8     5     6 ar  
     9     5    30 1   
    10     6     7 ar  
    11     6    31 1   
    12     7     8 1   
    13     8     9 1   
    14     9    10 1   
    15     9    32 1   
    16     9    33 1   
    17    10    11 2   
    18    10    12 1   
    19    12    13 1   
    20    12    20 1   
    21    13    14 1   
    22    13    34 1   
    23    13    35 1   
    24    14    15 2   
    25    14    17 1   
    26    15    16 1   
    27    16    18 2   
    28    17    18 1   
    29    18    19 1   
    30    19    36 1   
    31    19    37 1   
    32    20    21 1   
    33    20    38 1   
    34    20    39 1   
    35    21    22 1   
    36    21    27 2   
    37    22    23 2   
    38    22    40 1   
    39    23    24 1   
    40    23    41 1   
    41    24    25 2   
    42    24    26 1   
    43    26    27 1   
    44    26    43 1   
    45    27    42 1   
@<TRIPOS>SUBSTRUCTURE
     1 VFZ         1 TEMP              0 ****  ****    0 ROOT
