@<TRIPOS>MOLECULE
VFZ
   43    45     1     0     0
SMALL
No Charge or Current Charge


@<TRIPOS>ATOM
      1 Cl         -33.9040    49.7540    27.9820 cl         1 VFZ      -0.185000
      2 C16        -33.2200    51.2110    28.6990 ca         1 VFZ       0.124000
      3 C15        -31.8640    51.2190    29.0670 ca         1 VFZ      -0.086000
      4 C14        -31.2920    52.3710    29.6350 ca         1 VFZ      -0.106000
      5 C13        -32.0830    53.5120    29.8480 ca         1 VFZ      -0.095000
      6 C12        -33.4420    53.5040    29.4910 ca         1 VFZ      -0.111000
      7 C11        -34.0140    52.3590    28.9060 ca         1 VFZ      -0.091000
      8 S          -35.7410    52.3790    28.4370 ss         1 VFZ      -0.053000
      9 C10        -35.7980    53.6720    27.1190 c3         1 VFZ      -0.084400
     10 C9         -34.8790    53.2960    25.9440 c          1 VFZ       0.603100
     11 O1         -35.2060    52.3770    25.2040 o          1 VFZ      -0.548100
     12 N3         -33.6490    53.9770    25.7400 n          1 VFZ      -0.422800
     13 C2         -33.3040    55.2630    26.4120 c3         1 VFZ       0.086700
     14 C1         -33.9450    56.4610    25.7530 cc         1 VFZ       0.364300
     15 N2         -33.3510    57.3630    24.9830 nd         1 VFZ      -0.319000
     16 N1         -34.3380    58.2420    24.6060 nd         1 VFZ      -0.430000
     17 O2         -35.2760    56.6810    25.9080 os         1 VFZ      -0.311000
     18 C          -35.4300    57.7950    25.1750 cc         1 VFZ       0.662900
     19 N          -36.6460    58.3450    25.0700 nv         1 VFZ      -1.035900
     20 C3         -32.7140    53.5180    24.6880 c3         1 VFZ       0.155200
     21 C4         -31.7850    52.4600    25.2270 cc         1 VFZ      -0.216200
     22 C8         -30.5400    52.8660    25.8300 cc         1 VFZ      -0.085000
     23 C7         -29.6770    51.9090    26.3230 cd         1 VFZ      -0.310200
     24 C6         -29.9720    50.4700    26.2610 c          1 VFZ       0.551200
     25 O          -29.2280    49.6030    26.6890 o          1 VFZ      -0.556000
     26 N4         -31.1770    50.1820    25.6730 ns         1 VFZ      -0.366100
     27 C5         -32.0750    51.1090    25.1680 cd         1 VFZ      -0.018400
     28 H1         -31.2560    50.3320    28.9100 ha         1 VFZ       0.131000
     29 H2         -30.2410    52.3760    29.9130 ha         1 VFZ       0.122000
     30 H3         -31.6430    54.4020    30.2950 ha         1 VFZ       0.114000
     31 H4         -34.0510    54.3870    29.6710 ha         1 VFZ       0.104000
     32 H5         -35.5420    54.6430    27.5470 h1         1 VFZ       0.094700
     33 H6         -36.8210    53.7380    26.7310 h1         1 VFZ       0.094700
     34 H7         -33.5780    55.2400    27.4710 h1         1 VFZ       0.082700
     35 H8         -32.2160    55.4000    26.3870 h1         1 VFZ       0.082700
     36 H9         -36.7740    58.9860    24.2950 hn         1 VFZ       0.496500
     37 H10        -37.4350    57.7490    25.2950 hn         1 VFZ       0.496500
     38 H11        -32.1290    54.3680    24.3120 h1         1 VFZ       0.072700
     39 H12        -33.2740    53.1200    23.8310 h1         1 VFZ       0.072700
     40 H13        -30.2900    53.9240    25.8900 ha         1 VFZ       0.187000
     41 H14        -28.7310    52.1650    26.7860 ha         1 VFZ       0.211000
     42 H16        -32.9850    50.6890    24.7460 h4         1 VFZ       0.195000
     43 H15        -31.3930    49.1930    25.6280 hn         1 VFZ       0.325500
@<TRIPOS>BOND
     1     1     2 1   
     2     2     3 ar  
     3     2     7 ar  
     4     3     4 ar  
     5     3    28 1   
     6     4     5 ar  
     7     4    29 1   
     8     5     6 ar  
     9     5    30 1   
    10     6     7 ar  
    11     6    31 1   
    12     7     8 1   
    13     8     9 1   
    14     9    10 1   
    15     9    32 1   
    16     9    33 1   
    17    10    11 2   
    18    10    12 1   
    19    12    13 1   
    20    12    20 1   
    21    13    14 1   
    22    13    34 1   
    23    13    35 1   
    24    14    15 2   
    25    14    17 1   
    26    15    16 1   
    27    16    18 2   
    28    17    18 1   
    29    18    19 1   
    30    19    36 1   
    31    19    37 1   
    32    20    21 1   
    33    20    38 1   
    34    20    39 1   
    35    21    22 1   
    36    21    27 2   
    37    22    23 2   
    38    22    40 1   
    39    23    24 1   
    40    23    41 1   
    41    24    25 2   
    42    24    26 1   
    43    26    27 1   
    44    26    43 1   
    45    27    42 1   
@<TRIPOS>SUBSTRUCTURE
     1 VFZ         1 TEMP              0 ****  ****    0 ROOT
