@<TRIPOS>MOLECULE
VG0
   87    89     1     0     0
SMALL
bcc


@<TRIPOS>ATOM
      1 C1          29.9350     1.2580    32.9770 c          1 VG0       0.681700
      2 N2          28.5930     1.1730    32.9460 ns         1 VG0      -0.569900
      3 C3          27.7590     1.6150    31.8460 c3         1 VG0       0.106700
      4 C4          27.0700     2.9360    32.1960 c3         1 VG0       0.134100
      5 C5          26.7430     0.5230    31.4840 c3         1 VG0      -0.040100
      6 C6          28.0850     4.0160    32.6130 c3         1 VG0       0.125800
      7 O7          30.6090     1.7970    32.1100 o          1 VG0      -0.606100
      8 C8          30.5700     0.6450    34.1850 ca         1 VG0      -0.086600
      9 C9          31.5510     1.3710    34.8480 ca         1 VG0      -0.184000
     10 C10         32.1510     0.8140    35.9810 ca         1 VG0       0.111600
     11 C11         31.7940    -0.4590    36.4030 ca         1 VG0      -0.210000
     12 C12         30.8250    -1.2050    35.7160 ca         1 VG0       0.211600
     13 C13         30.1960    -0.6240    34.6040 ca         1 VG0      -0.211000
     14 C14         27.3870    -0.8240    31.3130 ca         1 VG0      -0.074300
     15 C15         28.2240    -1.0760    30.2280 ca         1 VG0      -0.125000
     16 C16         28.8510    -2.3050    30.0810 ca         1 VG0      -0.128500
     17 C17         28.6410    -3.3130    31.0140 ca         1 VG0      -0.129000
     18 C18         27.8050    -3.0760    32.0970 ca         1 VG0      -0.128500
     19 C19         27.1830    -1.8410    32.2420 ca         1 VG0      -0.125000
     20 N20         27.5340     5.3490    32.4150 n7         1 VG0      -0.853200
     21 O21         26.3520     3.3850    31.0760 oh         1 VG0      -0.610800
     22 N38         30.5740    -2.4850    36.1110 nu         1 VG0      -0.773600
     23 C39         29.5220    -3.3100    35.5860 c3         1 VG0       0.220800
     24 C40         28.1210    -2.9310    36.0490 c3         1 VG0      -0.127100
     25 N46         33.1520     1.5370    36.6510 n          1 VG0      -0.396000
     26 C47         33.9650     2.5320    35.9590 c5         1 VG0       0.096000
     27 C48         35.0920     2.8060    36.9490 c5         1 VG0      -0.092400
     28 C49         34.4450     2.5470    38.3000 c5         1 VG0      -0.168400
     29 C50         33.3520     1.5470    38.0030 c          1 VG0       0.709500
     30 O57         32.7430     0.8820    38.8170 o          1 VG0      -0.609500
     31 C59         26.9370     6.0550    33.5550 c3         1 VG0       0.203200
     32 C61         25.6160     5.3930    33.9440 c3         1 VG0      -0.088100
     33 C65         26.6390     7.4750    33.0720 c3         1 VG0      -0.088100
     34 C69         27.8470     6.0870    34.7970 c3         1 VG0      -0.106400
     35 C70         29.2710     6.5830    34.5770 c3         1 VG0      -0.075400
     36 C73         30.0960     6.4810    35.8550 c3         1 VG0      -0.074400
     37 C76         31.5840     6.7870    35.6970 c3         1 VG0      -0.059700
     38 C79         32.3070     6.5490    37.0170 c3         1 VG0      -0.087600
     39 C83         31.8420     8.2050    35.1970 c3         1 VG0      -0.087600
     40 H2          28.1290     0.7990    33.7590 hn         1 VG0       0.315500
     41 H3          28.4230     1.7880    30.9950 h1         1 VG0       0.089700
     42 H4          26.3860     2.7410    33.0390 h1         1 VG0       0.026700
     43 H5C1        25.9780     0.4680    32.2650 hc         1 VG0       0.061700
     44 H5C2        26.2340     0.8210    30.5650 hc         1 VG0       0.061700
     45 H6C1        28.4250     3.8310    33.6350 h1         1 VG0       0.053200
     46 H6C2        28.9650     3.9330    31.9710 h1         1 VG0       0.053200
     47 H21         26.3790     4.3580    31.1770 ho         1 VG0       0.440000
     48 H20         28.2380     5.9380    31.9890 hn         1 VG0       0.374800
     49 H9          31.8140     2.3580    34.4950 ha         1 VG0       0.145000
     50 H13         29.4570    -1.1780    34.0380 ha         1 VG0       0.144000
     51 H11         32.2900    -0.9110    37.2490 ha         1 VG0       0.152000
     52 H38         30.9230    -2.7540    37.0080 hn         1 VG0       0.424800
     53 H15         28.3860    -0.3030    29.4860 ha         1 VG0       0.129000
     54 H19         26.5180    -1.6760    33.0820 ha         1 VG0       0.129000
     55 H16         29.5090    -2.4760    29.2390 ha         1 VG0       0.128500
     56 H17         29.1260    -4.2740    30.9000 ha         1 VG0       0.130000
     57 H18         27.6360    -3.8510    32.8330 ha         1 VG0       0.128500
     58 H391        29.5740    -3.3000    34.4940 h1         1 VG0       0.051200
     59 H392        29.7400    -4.3360    35.8810 h1         1 VG0       0.051200
     60 H401        28.0090    -3.0350    37.1290 hc         1 VG0       0.040033
     61 H402        27.8690    -1.9010    35.7930 hc         1 VG0       0.040033
     62 H403        27.3750    -3.5740    35.5780 hc         1 VG0       0.040033
     63 H471        34.3190     2.1370    35.0070 h1         1 VG0       0.056200
     64 H472        33.3860     3.4380    35.7510 h1         1 VG0       0.056200
     65 H481        35.9070     2.1000    36.7790 hc         1 VG0       0.059700
     66 H482        35.4920     3.8130    36.8450 hc         1 VG0       0.059700
     67 H491        35.1250     2.1620    39.0590 hc         1 VG0       0.077700
     68 H492        33.9780     3.4470    38.7100 hc         1 VG0       0.077700
     69 H611        25.7620     4.3810    34.3240 hc         1 VG0       0.039533
     70 H612        25.1250     5.9650    34.7350 hc         1 VG0       0.039533
     71 H613        24.9340     5.3430    33.0940 hc         1 VG0       0.039533
     72 H651        25.9680     7.4510    32.2110 hc         1 VG0       0.039533
     73 H652        26.1630     8.0620    33.8590 hc         1 VG0       0.039533
     74 H653        27.5460     8.0050    32.7740 hc         1 VG0       0.039533
     75 H691        27.3620     6.7050    35.5610 hc         1 VG0       0.043700
     76 H692        27.8940     5.0830    35.2350 hc         1 VG0       0.043700
     77 H701        29.7590     5.9900    33.7960 hc         1 VG0       0.039200
     78 H702        29.2600     7.6170    34.2210 hc         1 VG0       0.039200
     79 H731        29.6720     7.1460    36.6180 hc         1 VG0       0.038700
     80 H732        29.9870     5.4660    36.2540 hc         1 VG0       0.038700
     81 H76         31.9870     6.0830    34.9560 hc         1 VG0       0.042700
     82 H791        33.3850     6.6960    36.9210 hc         1 VG0       0.032033
     83 H792        31.9420     7.2320    37.7890 hc         1 VG0       0.032033
     84 H793        32.1400     5.5340    37.3810 hc         1 VG0       0.032033
     85 H831        31.4160     8.9390    35.8850 hc         1 VG0       0.032033
     86 H832        32.9110     8.4010    35.1130 hc         1 VG0       0.032033
     87 H833        31.4010     8.3840    34.2140 hc         1 VG0       0.032033
@<TRIPOS>BOND
     1     1     2 1   
     2     1     7 2   
     3     1     8 1   
     4     2     3 1   
     5     2    40 1   
     6     3     4 1   
     7     3     5 1   
     8     3    41 1   
     9     4     6 1   
    10     4    21 1   
    11     4    42 1   
    12     5    14 1   
    13     5    43 1   
    14     5    44 1   
    15     6    20 1   
    16     6    45 1   
    17     6    46 1   
    18     8     9 ar  
    19     8    13 ar  
    20     9    10 ar  
    21     9    49 1   
    22    10    11 ar  
    23    10    25 1   
    24    11    12 ar  
    25    11    51 1   
    26    12    13 ar  
    27    12    22 1   
    28    13    50 1   
    29    14    15 ar  
    30    14    19 ar  
    31    15    16 ar  
    32    15    53 1   
    33    16    17 ar  
    34    16    55 1   
    35    17    18 ar  
    36    17    56 1   
    37    18    19 ar  
    38    18    57 1   
    39    19    54 1   
    40    20    31 1   
    41    20    48 1   
    42    21    47 1   
    43    22    23 1   
    44    22    52 1   
    45    23    24 1   
    46    23    58 1   
    47    23    59 1   
    48    24    60 1   
    49    24    61 1   
    50    24    62 1   
    51    25    26 1   
    52    25    29 1   
    53    26    27 1   
    54    26    63 1   
    55    26    64 1   
    56    27    28 1   
    57    27    65 1   
    58    27    66 1   
    59    28    29 1   
    60    28    67 1   
    61    28    68 1   
    62    29    30 2   
    63    31    32 1   
    64    31    33 1   
    65    31    34 1   
    66    32    69 1   
    67    32    70 1   
    68    32    71 1   
    69    33    72 1   
    70    33    73 1   
    71    33    74 1   
    72    34    35 1   
    73    34    75 1   
    74    34    76 1   
    75    35    36 1   
    76    35    77 1   
    77    35    78 1   
    78    36    37 1   
    79    36    79 1   
    80    36    80 1   
    81    37    38 1   
    82    37    39 1   
    83    37    81 1   
    84    38    82 1   
    85    38    83 1   
    86    38    84 1   
    87    39    85 1   
    88    39    86 1   
    89    39    87 1   
@<TRIPOS>SUBSTRUCTURE
     1 VG0         1 TEMP              0 ****  ****    0 ROOT
