@<TRIPOS>MOLECULE
VG0
   87    89     1     0     0
SMALL
No Charge or Current Charge


@<TRIPOS>ATOM
      1 C1          30.1960     1.5130    32.7460 c          1 VG0       0.614700
      2 N2          28.8780     1.1570    32.5490 ns         1 VG0      -0.502900
      3 C3          28.0450     1.5760    31.4080 c3         1 VG0       0.106700
      4 C4          27.2610     2.8770    31.7600 c3         1 VG0       0.157300
      5 C5          27.1200     0.4120    30.9720 c3         1 VG0      -0.040100
      6 C6          28.1730     4.0680    32.1360 c3         1 VG0       0.125800
      7 O7          30.8180     2.1380    31.8970 o          1 VG0      -0.606100
      8 C8          30.8120     1.1140    34.0780 ca         1 VG0      -0.086600
      9 C9          32.1280     1.5210    34.3900 ca         1 VG0      -0.166000
     10 C10         32.7560     1.1660    35.6030 ca         1 VG0       0.019000
     11 C11         31.9870     0.4790    36.5650 ca         1 VG0      -0.192000
     12 C12         30.6770     0.0740    36.2880 ca         1 VG0       0.350000
     13 C13         30.0960     0.3730    35.0480 ca         1 VG0      -0.193000
     14 C14         27.8790    -0.8880    30.7190 ca         1 VG0      -0.074300
     15 C15         28.7380    -1.0010    29.6080 ca         1 VG0      -0.107000
     16 C16         29.4480    -2.1930    29.3780 ca         1 VG0      -0.110500
     17 C17         29.3030    -3.2790    30.2570 ca         1 VG0      -0.111000
     18 C18         28.4470    -3.1730    31.3660 ca         1 VG0      -0.110500
     19 C19         27.7360    -1.9820    31.5960 ca         1 VG0      -0.107000
     20 N20         27.4320     5.3760    32.1420 n7         1 VG0      -0.908400
     21 O21         26.4630     3.3570    30.6800 oh         1 VG0      -0.673000
     22 N38         29.9630    -0.6170    37.2670 nu         1 VG0      -0.967200
     23 C39         28.5230    -0.4820    37.5470 c3         1 VG0       0.220800
     24 C40         28.1810     0.9610    37.9570 c3         1 VG0      -0.127100
     25 N46         34.0340     1.7660    35.9150 n          1 VG0      -0.236400
     26 C47         35.0600     1.9500    34.8600 c5         1 VG0       0.096000
     27 C48         36.3710     2.0580    35.6960 c5         1 VG0      -0.092400
     28 C49         35.8430     2.8200    36.9340 c5         1 VG0      -0.168400
     29 C50         34.4920     2.1570    37.1910 c          1 VG0       0.567000
     30 O57         33.9970     1.8700    38.2730 o          1 VG0      -0.534000
     31 C59         26.5450     5.7360    33.2880 c3         1 VG0       0.203200
     32 C61         25.1140     5.2110    33.0100 c3         1 VG0      -0.088100
     33 C65         26.4980     7.2840    33.3190 c3         1 VG0      -0.088100
     34 C69         27.0600     5.1760    34.6560 c3         1 VG0      -0.106400
     35 C70         28.4650     5.6510    35.1240 c3         1 VG0      -0.075400
     36 C73         29.0440     4.7620    36.2520 c3         1 VG0      -0.074400
     37 C76         30.5140     5.0730    36.6440 c3         1 VG0      -0.059700
     38 C79         31.0440     4.0330    37.6550 c3         1 VG0      -0.087600
     39 C83         30.7040     6.5110    37.1830 c3         1 VG0      -0.087600
     40 H2          28.4430     0.6160    33.2820 hn         1 VG0       0.315500
     41 H3          28.7070     1.8030    30.5610 h1         1 VG0       0.089700
     42 H4          26.6190     2.6540    32.6210 h1         1 VG0       0.026700
     43 H5C1        26.3520     0.2600    31.7400 hc         1 VG0       0.061700
     44 H5C2        26.5830     0.7020    30.0610 hc         1 VG0       0.061700
     45 H6C1        28.6820     3.8590    33.0840 h1         1 VG0       0.053200
     46 H6C2        28.9640     4.1210    31.3750 h1         1 VG0       0.053200
     47 H21         26.4890     4.3320    30.8740 ho         1 VG0       0.479000
     48 H20         28.1510     6.1100    32.1130 hn         1 VG0       0.430000
     49 H9          32.6680     2.1310    33.6700 ha         1 VG0       0.127000
     50 H13         29.0840     0.0360    34.8570 ha         1 VG0       0.126000
     51 H11         32.4060     0.2260    37.5310 ha         1 VG0       0.134000
     52 H38         30.5320    -0.9060    38.0640 hn         1 VG0       0.480000
     53 H15         28.8580    -0.1650    28.9230 ha         1 VG0       0.111000
     54 H19         27.0780    -1.9100    32.4590 ha         1 VG0       0.111000
     55 H16         30.1110    -2.2740    28.5190 ha         1 VG0       0.110500
     56 H17         29.8520    -4.2010    30.0800 ha         1 VG0       0.112000
     57 H18         28.3330    -4.0140    32.0480 ha         1 VG0       0.110500
     58 H391        27.9290    -0.7620    36.6660 h1         1 VG0       0.051200
     59 H392        28.2370    -1.1600    38.3630 h1         1 VG0       0.051200
     60 H401        28.7570     1.2630    38.8400 hc         1 VG0       0.040033
     61 H402        28.3980     1.6630    37.1440 hc         1 VG0       0.040033
     62 H403        27.1150     1.0420    38.1990 hc         1 VG0       0.040033
     63 H471        35.0890     1.1070    34.1570 h1         1 VG0       0.056200
     64 H472        34.8700     2.8720    34.2950 h1         1 VG0       0.056200
     65 H481        36.7490     1.0660    35.9700 hc         1 VG0       0.059700
     66 H482        37.1720     2.5880    35.1670 hc         1 VG0       0.059700
     67 H491        36.4850     2.7940    37.8200 hc         1 VG0       0.077700
     68 H492        35.6570     3.8620    36.6470 hc         1 VG0       0.077700
     69 H611        25.0590     4.1200    33.0780 hc         1 VG0       0.039533
     70 H612        24.4070     5.6150    33.7440 hc         1 VG0       0.039533
     71 H613        24.7700     5.5120    32.0130 hc         1 VG0       0.039533
     72 H651        26.0700     7.6810    32.3900 hc         1 VG0       0.039533
     73 H652        25.8790     7.6380    34.1520 hc         1 VG0       0.039533
     74 H653        27.4990     7.7150    33.4350 hc         1 VG0       0.039533
     75 H691        26.3390     5.4480    35.4380 hc         1 VG0       0.043700
     76 H692        27.0390     4.0800    34.6230 hc         1 VG0       0.043700
     77 H701        29.1690     5.6570    34.2850 hc         1 VG0       0.039200
     78 H702        28.3890     6.6860    35.4760 hc         1 VG0       0.039200
     79 H731        28.4030     4.8410    37.1390 hc         1 VG0       0.038700
     80 H732        28.9950     3.7170    35.9230 hc         1 VG0       0.038700
     81 H76         31.1250     4.9780    35.7370 hc         1 VG0       0.042700
     82 H791        32.1050     4.2080    37.8720 hc         1 VG0       0.032033
     83 H792        30.4870     4.0830    38.5980 hc         1 VG0       0.032033
     84 H793        30.9450     3.0180    37.2530 hc         1 VG0       0.032033
     85 H831        30.0640     6.6890    38.0550 hc         1 VG0       0.032033
     86 H832        31.7460     6.6750    37.4840 hc         1 VG0       0.032033
     87 H833        30.4620     7.2570    36.4170 hc         1 VG0       0.032033
@<TRIPOS>BOND
     1     1     2 1   
     2     1     7 2   
     3     1     8 1   
     4     2     3 1   
     5     2    40 1   
     6     3     4 1   
     7     3     5 1   
     8     3    41 1   
     9     4     6 1   
    10     4    21 1   
    11     4    42 1   
    12     5    14 1   
    13     5    43 1   
    14     5    44 1   
    15     6    20 1   
    16     6    45 1   
    17     6    46 1   
    18     8     9 ar  
    19     8    13 ar  
    20     9    10 ar  
    21     9    49 1   
    22    10    11 ar  
    23    10    25 1   
    24    11    12 ar  
    25    11    51 1   
    26    12    13 ar  
    27    12    22 1   
    28    13    50 1   
    29    14    15 ar  
    30    14    19 ar  
    31    15    16 ar  
    32    15    53 1   
    33    16    17 ar  
    34    16    55 1   
    35    17    18 ar  
    36    17    56 1   
    37    18    19 ar  
    38    18    57 1   
    39    19    54 1   
    40    20    31 1   
    41    20    48 1   
    42    21    47 1   
    43    22    23 1   
    44    22    52 1   
    45    23    24 1   
    46    23    58 1   
    47    23    59 1   
    48    24    60 1   
    49    24    61 1   
    50    24    62 1   
    51    25    26 1   
    52    25    29 1   
    53    26    27 1   
    54    26    63 1   
    55    26    64 1   
    56    27    28 1   
    57    27    65 1   
    58    27    66 1   
    59    28    29 1   
    60    28    67 1   
    61    28    68 1   
    62    29    30 2   
    63    31    32 1   
    64    31    33 1   
    65    31    34 1   
    66    32    69 1   
    67    32    70 1   
    68    32    71 1   
    69    33    72 1   
    70    33    73 1   
    71    33    74 1   
    72    34    35 1   
    73    34    75 1   
    74    34    76 1   
    75    35    36 1   
    76    35    77 1   
    77    35    78 1   
    78    36    37 1   
    79    36    79 1   
    80    36    80 1   
    81    37    38 1   
    82    37    39 1   
    83    37    81 1   
    84    38    82 1   
    85    38    83 1   
    86    38    84 1   
    87    39    85 1   
    88    39    86 1   
    89    39    87 1   
@<TRIPOS>SUBSTRUCTURE
     1 VG0         1 TEMP              0 ****  ****    0 ROOT
