@<TRIPOS>MOLECULE
VG3
   85    87     1     0     0
SMALL
No Charge or Current Charge


@<TRIPOS>ATOM
      1 C1          29.5430     1.8550    34.7440 c          1 VG3       0.617700
      2 N2          28.6080     1.8040    33.7330 ns         1 VG3      -0.503900
      3 C3          28.5640     2.7140    32.5760 c3         1 VG3       0.114700
      4 C4          27.3920     3.7350    32.6930 c3         1 VG3       0.158300
      5 C5          28.5440     1.8940    31.2620 c3         1 VG3      -0.038100
      6 O6          30.3820     2.7420    34.7920 o          1 VG3      -0.587100
      7 C7          29.4740     0.7620    35.7870 ca         1 VG3      -0.171600
      8 C8          28.5230    -0.2860    35.7230 ca         1 VG3      -0.037000
      9 C9          28.4990    -1.2850    36.7100 ca         1 VG3      -0.135000
     10 C10         29.4140    -1.2600    37.7730 ca         1 VG3      -0.001000
     11 C11         30.3630    -0.2230    37.8500 ca         1 VG3      -0.273500
     12 C12         30.3930     0.7800    36.8600 ca         1 VG3       0.028000
     13 C13         29.7130     0.9180    31.1690 ca         1 VG3      -0.077300
     14 C14         29.5000    -0.4700    31.2850 ca         1 VG3      -0.107500
     15 C15         30.5840    -1.3620    31.2170 ca         1 VG3      -0.108000
     16 C16         31.8880    -0.8730    31.0320 ca         1 VG3      -0.108000
     17 C17         32.1070     0.5100    30.9150 ca         1 VG3      -0.108000
     18 C18         31.0240     1.4020    30.9830 ca         1 VG3      -0.107500
     19 O19         27.3960     4.6590    31.6030 oh         1 VG3      -0.658000
     20 C20         27.3820     7.0940    34.6080 c3         1 VG3       0.091500
     21 C21         27.4510     4.5990    33.9850 c3         1 VG3       0.112800
     22 N22         26.8930     5.9700    33.7260 n7         1 VG3      -0.895400
     23 S23         31.5560    -0.1880    39.2010 sy         1 VG3       1.040500
     24 C24         27.0480     6.7720    36.0830 c3         1 VG3      -0.110100
     25 C38         28.8950     7.4890    34.4140 c          1 VG3       0.599100
     26 N39         29.5210     6.8590    33.3630 ns         1 VG3      -0.495900
     27 C40         30.9220     6.9940    32.9640 c6         1 VG3       0.117700
     28 O41         29.4890     8.2720    35.1460 o          1 VG3      -0.609100
     29 C43         31.1090     8.2210    32.0340 c6         1 VG3      -0.090400
     30 C44         32.5750     8.3470    31.5490 c6         1 VG3      -0.071400
     31 C45         33.0410     7.0520    30.8390 c6         1 VG3      -0.077400
     32 C46         32.8490     5.8160    31.7510 c6         1 VG3      -0.071400
     33 C47         31.3830     5.7030    32.2380 c6         1 VG3      -0.090400
     34 C60         32.9520    -1.1240    38.5320 c3         1 VG3      -0.294400
     35 C61         34.1390    -1.2420    39.5180 c3         1 VG3      -0.052400
     36 C64         35.3180    -2.0430    38.9260 c3         1 VG3      -0.069400
     37 C67         36.5120    -2.1710    39.8960 c3         1 VG3      -0.077400
     38 C70         37.6890    -2.9700    39.3030 c3         1 VG3      -0.089100
     39 O76         31.0190    -0.9680    40.3250 o          1 VG3      -0.520500
     40 O77         32.0190     1.1940    39.3850 o          1 VG3      -0.520500
     41 H2          27.9510     1.0380    33.7590 hn         1 VG3       0.313500
     42 H3          29.4920     3.3000    32.5640 h1         1 VG3       0.096700
     43 H4          26.4420     3.1850    32.6940 h1         1 VG3       0.021700
     44 H5C1        27.5890     1.3590    31.1880 hc         1 VG3       0.062700
     45 H5C2        28.5760     2.5780    30.4060 hc         1 VG3       0.062700
     46 H19         27.1120     5.4880    32.0730 ho         1 VG3       0.461000
     47 H211        26.9080     4.0910    34.7940 h1         1 VG3       0.060200
     48 H212        28.4990     4.6640    34.3040 h1         1 VG3       0.060200
     49 H8          27.7980    -0.3470    34.9160 ha         1 VG3       0.125000
     50 H12         31.1350     1.5760    36.9220 ha         1 VG3       0.153000
     51 H9          27.7660    -2.0870    36.6500 ha         1 VG3       0.125000
     52 H10         29.3820    -2.0460    38.5260 ha         1 VG3       0.140000
     53 H14         28.4950    -0.8600    31.4320 ha         1 VG3       0.109000
     54 H18         31.2030     2.4720    30.8940 ha         1 VG3       0.109000
     55 H15         30.4130    -2.4330    31.3090 ha         1 VG3       0.112500
     56 H16         32.7270    -1.5640    30.9810 ha         1 VG3       0.113000
     57 H17         33.1160     0.8900    30.7730 ha         1 VG3       0.112500
     58 H20         26.8260     8.0030    34.3380 h1         1 VG3       0.070700
     59 H22         25.8660     5.9180    33.8160 hn         1 VG3       0.416000
     60 H241        27.6570     5.9390    36.4550 hc         1 VG3       0.050367
     61 H242        27.2460     7.6440    36.7190 hc         1 VG3       0.050367
     62 H243        25.9900     6.5090    36.1960 hc         1 VG3       0.050367
     63 H601        32.5710    -2.1170    38.2720 h1         1 VG3       0.097200
     64 H602        33.2660    -0.6110    37.6160 h1         1 VG3       0.097200
     65 H39         28.9250     6.2250    32.8450 hn         1 VG3       0.324500
     66 H40         31.5340     7.1300    33.8690 h1         1 VG3       0.070700
     67 H431        30.4400     8.1370    31.1660 hc         1 VG3       0.046450
     68 H432        30.8180     9.1380    32.5640 hc         1 VG3       0.046450
     69 H471        31.2910     4.8440    32.9160 hc         1 VG3       0.046450
     70 H472        30.7260     5.4980    31.3810 hc         1 VG3       0.046450
     71 H441        32.6700     9.2010    30.8650 hc         1 VG3       0.041950
     72 H442        33.2310     8.5570    32.4050 hc         1 VG3       0.041950
     73 H451        32.4740     6.9160    29.9080 hc         1 VG3       0.038700
     74 H452        34.0970     7.1440    30.5510 hc         1 VG3       0.038700
     75 H461        33.1330     4.9040    31.2090 hc         1 VG3       0.041950
     76 H462        33.5220     5.8870    32.6180 hc         1 VG3       0.041950
     77 H611        34.4890    -0.2380    39.7940 hc         1 VG3       0.060200
     78 H612        33.8020    -1.7300    40.4430 hc         1 VG3       0.060200
     79 H641        34.9690    -3.0460    38.6500 hc         1 VG3       0.041200
     80 H642        35.6550    -1.5560    38.0020 hc         1 VG3       0.041200
     81 H671        36.8660    -1.1690    40.1730 hc         1 VG3       0.040200
     82 H672        36.1800    -2.6590    40.8210 hc         1 VG3       0.040200
     83 H701        38.0680    -2.4870    38.3950 hc         1 VG3       0.033033
     84 H702        38.5100    -3.0340    40.0270 hc         1 VG3       0.033033
     85 H703        37.3760    -3.9900    39.0490 hc         1 VG3       0.033033
@<TRIPOS>BOND
     1     1     2 1   
     2     1     6 2   
     3     1     7 1   
     4     2     3 1   
     5     2    41 1   
     6     3     4 1   
     7     3     5 1   
     8     3    42 1   
     9     4    19 1   
    10     4    21 1   
    11     4    43 1   
    12     5    13 1   
    13     5    44 1   
    14     5    45 1   
    15     7     8 ar  
    16     7    12 ar  
    17     8     9 ar  
    18     8    49 1   
    19     9    10 ar  
    20     9    51 1   
    21    10    11 ar  
    22    10    52 1   
    23    11    12 ar  
    24    11    23 1   
    25    12    50 1   
    26    13    14 ar  
    27    13    18 ar  
    28    14    15 ar  
    29    14    53 1   
    30    15    16 ar  
    31    15    55 1   
    32    16    17 ar  
    33    16    56 1   
    34    17    18 ar  
    35    17    57 1   
    36    18    54 1   
    37    19    46 1   
    38    20    22 1   
    39    20    24 1   
    40    20    25 1   
    41    20    58 1   
    42    21    22 1   
    43    21    47 1   
    44    21    48 1   
    45    22    59 1   
    46    23    34 1   
    47    23    39 2   
    48    23    40 2   
    49    24    60 1   
    50    24    61 1   
    51    24    62 1   
    52    25    26 1   
    53    25    28 2   
    54    26    27 1   
    55    26    65 1   
    56    27    29 1   
    57    27    33 1   
    58    27    66 1   
    59    29    30 1   
    60    29    67 1   
    61    29    68 1   
    62    30    31 1   
    63    30    71 1   
    64    30    72 1   
    65    31    32 1   
    66    31    73 1   
    67    31    74 1   
    68    32    33 1   
    69    32    75 1   
    70    32    76 1   
    71    33    69 1   
    72    33    70 1   
    73    34    35 1   
    74    34    63 1   
    75    34    64 1   
    76    35    36 1   
    77    35    77 1   
    78    35    78 1   
    79    36    37 1   
    80    36    79 1   
    81    36    80 1   
    82    37    38 1   
    83    37    81 1   
    84    37    82 1   
    85    38    83 1   
    86    38    84 1   
    87    38    85 1   
@<TRIPOS>SUBSTRUCTURE
     1 VG3         1 TEMP              0 ****  ****    0 ROOT
