@<TRIPOS>MOLECULE
VG3
   85    87     1     0     0
SMALL
bcc


@<TRIPOS>ATOM
      1 C1          30.1650     0.9380    34.2510 c          1 VG3       0.684700
      2 N2          29.0760     1.2570    33.5330 ns         1 VG3      -0.570900
      3 C3          29.0470     2.2420    32.4720 c3         1 VG3       0.114700
      4 C4          28.3450     3.5100    32.9700 c3         1 VG3       0.135100
      5 C5          28.3740     1.6360    31.2330 c3         1 VG3      -0.038100
      6 O6          31.2530     1.4800    34.1370 o          1 VG3      -0.587100
      7 C7          29.9480    -0.1480    35.2580 ca         1 VG3      -0.171600
      8 C8          29.2290    -1.3010    34.9560 ca         1 VG3      -0.055000
      9 C9          29.0630    -2.2970    35.9070 ca         1 VG3      -0.153000
     10 C10         29.5920    -2.1410    37.1780 ca         1 VG3      -0.019000
     11 C11         30.3070    -0.9870    37.4690 ca         1 VG3      -0.273500
     12 C12         30.5080     0.0030    36.5210 ca         1 VG3       0.010000
     13 C13         29.0640     0.3750    30.7950 ca         1 VG3      -0.077300
     14 C14         28.5390    -0.8770    31.1030 ca         1 VG3      -0.125500
     15 C15         29.2030    -2.0410    30.7340 ca         1 VG3      -0.126000
     16 C16         30.4080    -1.9670    30.0500 ca         1 VG3      -0.126000
     17 C17         30.9400    -0.7230    29.7330 ca         1 VG3      -0.126000
     18 C18         30.2720     0.4360    30.1030 ca         1 VG3      -0.125500
     19 O19         28.2160     4.3920    31.8830 oh         1 VG3      -0.595800
     20 C20         29.3140     6.2820    35.3310 c3         1 VG3       0.091500
     21 C21         29.1190     4.1640    34.1140 c3         1 VG3       0.112800
     22 N22         28.5060     5.4380    34.4610 n7         1 VG3      -0.840200
     23 S23         30.9640    -0.7600    39.1050 sy         1 VG3       1.071300
     24 C24         29.8430     5.6050    36.5920 c3         1 VG3      -0.110100
     25 C38         30.4440     6.9600    34.5460 c          1 VG3       0.666100
     26 N39         30.1710     7.1770    33.2560 ns         1 VG3      -0.562900
     27 C40         31.0490     7.8480    32.3210 c6         1 VG3       0.117700
     28 O41         31.4870     7.3060    35.0860 o          1 VG3      -0.609100
     29 C43         30.9710     9.3690    32.4520 c6         1 VG3      -0.090400
     30 C44         31.8580    10.0590    31.4200 c6         1 VG3      -0.071400
     31 C45         31.5000     9.6200    30.0040 c6         1 VG3      -0.077400
     32 C46         31.5700     8.1020    29.8680 c6         1 VG3      -0.071400
     33 C47         30.6940     7.4050    30.9040 c6         1 VG3      -0.090400
     34 C60         32.6160    -1.4410    39.0160 c3         1 VG3      -0.183600
     35 C61         33.3360    -1.2780    40.3480 c3         1 VG3      -0.052400
     36 C64         34.7680    -1.7950    40.2660 c3         1 VG3      -0.069400
     37 C67         35.5200    -1.6140    41.5780 c3         1 VG3      -0.077400
     38 C70         36.9640    -2.0900    41.4990 c3         1 VG3      -0.089100
     39 O76         30.1720    -1.5730    40.0270 o          1 VG3      -0.591300
     40 O77         31.0700     0.6770    39.3520 o          1 VG3      -0.591300
     41 H2          28.1970     0.8340    33.7890 hn         1 VG3       0.313500
     42 H3          30.0820     2.4860    32.2250 h1         1 VG3       0.096700
     43 H4          27.3510     3.2180    33.3480 h1         1 VG3       0.021700
     44 H5C1        27.3210     1.4350    31.4500 hc         1 VG3       0.062700
     45 H5C2        28.3950     2.3730    30.4290 hc         1 VG3       0.062700
     46 H19         27.8940     5.2240    32.2500 ho         1 VG3       0.422000
     47 H211        29.1700     3.4750    34.9630 h1         1 VG3       0.060200
     48 H212        30.1470     4.3480    33.7870 h1         1 VG3       0.060200
     49 H8          28.8120    -1.4380    33.9650 ha         1 VG3       0.143000
     50 H12         31.0730     0.8950    36.7610 ha         1 VG3       0.171000
     51 H9          28.5120    -3.1940    35.6580 ha         1 VG3       0.143000
     52 H10         29.4430    -2.9080    37.9260 ha         1 VG3       0.158000
     53 H14         27.5950    -0.9450    31.6330 ha         1 VG3       0.127000
     54 H18         30.6950     1.4010    29.8490 ha         1 VG3       0.127000
     55 H15         28.7770    -3.0050    30.9810 ha         1 VG3       0.130500
     56 H16         30.9280    -2.8720    29.7630 ha         1 VG3       0.131000
     57 H17         31.8760    -0.6550    29.1930 ha         1 VG3       0.130500
     58 H20         28.6590     7.1020    35.6460 h1         1 VG3       0.070700
     59 H22         27.6100     5.2740    34.9040 hn         1 VG3       0.360800
     60 H241        30.5890     4.8400    36.3750 hc         1 VG3       0.050367
     61 H242        30.3000     6.3320    37.2610 hc         1 VG3       0.050367
     62 H243        29.0200     5.1320    37.1290 hc         1 VG3       0.050367
     63 H601        32.5130    -2.4900    38.7300 h1         1 VG3       0.097200
     64 H602        33.1300    -0.9120    38.2110 h1         1 VG3       0.097200
     65 H39         29.2790     6.8420    32.9260 hn         1 VG3       0.324500
     66 H40         32.0760     7.5330    32.5370 h1         1 VG3       0.070700
     67 H431        29.9300     9.6810    32.3110 hc         1 VG3       0.046450
     68 H432        31.2580     9.6660    33.4630 hc         1 VG3       0.046450
     69 H471        30.7910     6.3200    30.8220 hc         1 VG3       0.046450
     70 H472        29.6410     7.6460    30.7110 hc         1 VG3       0.046450
     71 H441        31.7680    11.1430    31.5180 hc         1 VG3       0.041950
     72 H442        32.9070     9.8160    31.6200 hc         1 VG3       0.041950
     73 H451        30.4870     9.9610    29.7640 hc         1 VG3       0.038700
     74 H452        32.1670    10.0930    29.2790 hc         1 VG3       0.038700
     75 H461        31.2680     7.7940    28.8650 hc         1 VG3       0.041950
     76 H462        32.6080     7.7750    29.9930 hc         1 VG3       0.041950
     77 H611        33.3510    -0.2230    40.6310 hc         1 VG3       0.060200
     78 H612        32.7950    -1.8150    41.1300 hc         1 VG3       0.060200
     79 H641        34.7630    -2.8540    39.9870 hc         1 VG3       0.041200
     80 H642        35.2990    -1.2690    39.4660 hc         1 VG3       0.041200
     81 H671        35.4980    -0.5580    41.8610 hc         1 VG3       0.040200
     82 H672        34.9970    -2.1540    42.3730 hc         1 VG3       0.040200
     83 H701        37.5170    -1.5410    40.7350 hc         1 VG3       0.033033
     84 H702        37.4810    -1.9500    42.4480 hc         1 VG3       0.033033
     85 H703        37.0180    -3.1510    41.2450 hc         1 VG3       0.033033
@<TRIPOS>BOND
     1     1     2 1   
     2     1     6 2   
     3     1     7 1   
     4     2     3 1   
     5     2    41 1   
     6     3     4 1   
     7     3     5 1   
     8     3    42 1   
     9     4    19 1   
    10     4    21 1   
    11     4    43 1   
    12     5    13 1   
    13     5    44 1   
    14     5    45 1   
    15     7     8 ar  
    16     7    12 ar  
    17     8     9 ar  
    18     8    49 1   
    19     9    10 ar  
    20     9    51 1   
    21    10    11 ar  
    22    10    52 1   
    23    11    12 ar  
    24    11    23 1   
    25    12    50 1   
    26    13    14 ar  
    27    13    18 ar  
    28    14    15 ar  
    29    14    53 1   
    30    15    16 ar  
    31    15    55 1   
    32    16    17 ar  
    33    16    56 1   
    34    17    18 ar  
    35    17    57 1   
    36    18    54 1   
    37    19    46 1   
    38    20    22 1   
    39    20    24 1   
    40    20    25 1   
    41    20    58 1   
    42    21    22 1   
    43    21    47 1   
    44    21    48 1   
    45    22    59 1   
    46    23    34 1   
    47    23    39 2   
    48    23    40 2   
    49    24    60 1   
    50    24    61 1   
    51    24    62 1   
    52    25    26 1   
    53    25    28 2   
    54    26    27 1   
    55    26    65 1   
    56    27    29 1   
    57    27    33 1   
    58    27    66 1   
    59    29    30 1   
    60    29    67 1   
    61    29    68 1   
    62    30    31 1   
    63    30    71 1   
    64    30    72 1   
    65    31    32 1   
    66    31    73 1   
    67    31    74 1   
    68    32    33 1   
    69    32    75 1   
    70    32    76 1   
    71    33    69 1   
    72    33    70 1   
    73    34    35 1   
    74    34    63 1   
    75    34    64 1   
    76    35    36 1   
    77    35    77 1   
    78    35    78 1   
    79    36    37 1   
    80    36    79 1   
    81    36    80 1   
    82    37    38 1   
    83    37    81 1   
    84    37    82 1   
    85    38    83 1   
    86    38    84 1   
    87    38    85 1   
@<TRIPOS>SUBSTRUCTURE
     1 VG3         1 TEMP              0 ****  ****    0 ROOT
