@<TRIPOS>MOLECULE
VG4
   86    89     1     0     0
SMALL
bcc


@<TRIPOS>ATOM
      1 C1          31.4430    -0.5150    37.1010 ca         1 VG4       0.091600
      2 C2          31.4420     0.3010    35.9720 ca         1 VG4      -0.148000
      3 C3          30.7060    -0.0820    34.8630 ca         1 VG4      -0.097600
      4 C4          29.9870    -1.2740    34.8530 ca         1 VG4      -0.214000
      5 C5          30.0000    -2.0880    35.9830 ca         1 VG4       0.158100
      6 C6          30.7300    -1.7040    37.1080 ca         1 VG4      -0.152000
      7 C7          30.7060     0.8210    33.6690 c          1 VG4       0.683700
      8 N8          29.5080     0.9680    33.0770 ns         1 VG4      -0.568900
      9 O9          31.7260     1.3810    33.2990 o          1 VG4      -0.589100
     10 C10         29.2820     1.6730    31.8350 c3         1 VG4       0.081700
     11 C11         28.5870     0.7380    30.8340 c3         1 VG4      -0.049100
     12 C12         28.4600     2.9470    32.0980 c3         1 VG4       0.132100
     13 O13         28.1230     3.5910    30.8860 oh         1 VG4      -0.599800
     14 C14         29.2840    -0.5890    30.7270 ca         1 VG4      -0.078300
     15 C15         29.2300     3.9500    32.9410 c3         1 VG4       0.169800
     16 N16         28.3580     5.0480    33.3100 n7         1 VG4      -0.824200
     17 C17         28.8940     6.0710    34.2010 c3         1 VG4       0.118500
     18 C18         30.0360     6.8510    33.5440 c          1 VG4       0.622100
     19 N19         29.6700     8.0140    32.9840 ns         1 VG4      -0.573900
     20 O20         31.1770     6.4080    33.4840 o          1 VG4      -0.597100
     21 C21         30.5550     8.8710    32.2180 c6         1 VG4       0.112700
     22 C22         29.3280     5.5010    35.5410 c3         1 VG4      -0.083100
     23 C23         31.4080     9.7700    33.1160 c6         1 VG4      -0.089900
     24 C24         32.2950    10.6920    32.2830 c6         1 VG4      -0.071400
     25 C25         31.4690    11.5260    31.3100 c6         1 VG4      -0.077400
     26 C26         30.6110    10.6340    30.4180 c6         1 VG4      -0.071400
     27 C27         29.7280     9.7040    31.2430 c6         1 VG4      -0.089900
     28 C56         28.6660    -1.7540    31.1720 ca         1 VG4      -0.124500
     29 C57         29.3190    -2.9790    31.1080 ca         1 VG4      -0.127500
     30 C58         30.6080    -3.0540    30.6010 ca         1 VG4      -0.126000
     31 C59         31.2340    -1.8980    30.1510 ca         1 VG4      -0.127500
     32 C60         30.5760    -0.6780    30.2120 ca         1 VG4      -0.124500
     33 O66         29.3700    -3.2700    36.0820 os         1 VG4      -0.318900
     34 C67         28.5890    -3.7660    35.0020 c3         1 VG4       0.138400
     35 C68         27.2350    -3.0890    34.8690 c3         1 VG4      -0.112400
     36 C71         26.3790    -3.7940    33.8250 c3         1 VG4      -0.092100
     37 N77         32.1850    -0.1230    38.2270 n          1 VG4      -0.317200
     38 C78         33.4250     0.5420    38.1590 c2         1 VG4      -0.020400
     39 C79         33.8440     0.9050    39.3660 c2         1 VG4      -0.249200
     40 C80         32.8270     0.4800    40.3720 c5         1 VG4      -0.131200
     41 C81         31.7530    -0.1840    39.5360 c          1 VG4       0.704500
     42 O88         30.7060    -0.6610    39.9140 o          1 VG4      -0.588500
     43 H2          31.9850     1.2370    35.9660 ha         1 VG4       0.157000
     44 H6          30.7500    -2.3600    37.9660 ha         1 VG4       0.167000
     45 H4          29.4620    -1.5700    33.9540 ha         1 VG4       0.146000
     46 H8          28.7070     0.5310    33.5060 hn         1 VG4       0.314500
     47 H10         30.2600     1.9550    31.4380 h1         1 VG4       0.098700
     48 H111        27.5490     0.5770    31.1440 hc         1 VG4       0.052200
     49 H112        28.5550     1.2260    29.8580 hc         1 VG4       0.052200
     50 H12         27.5520     2.6580    32.6480 h1         1 VG4       0.038700
     51 H13         27.3580     3.1570    30.4990 ho         1 VG4       0.403000
     52 H151        29.5710     3.4530    33.8500 h1         1 VG4       0.061200
     53 H152        30.1340     4.2510    32.3920 h1         1 VG4       0.061200
     54 H56         27.6550    -1.7030    31.5640 ha         1 VG4       0.130500
     55 H60         31.0740     0.2160    29.8540 ha         1 VG4       0.130500
     56 H16         27.9990     5.4900    32.4740 hn         1 VG4       0.370800
     57 H17         28.0650     6.7610    34.3870 h1         1 VG4       0.052700
     58 H221        30.2110     4.8690    35.4580 hc         1 VG4       0.048033
     59 H222        29.5660     6.3080    36.2340 hc         1 VG4       0.048033
     60 H223        28.5210     4.9110    35.9760 hc         1 VG4       0.048033
     61 H19         28.7260     8.3360    33.1300 hn         1 VG4       0.307500
     62 H21         31.2240     8.2230    31.6430 h1         1 VG4       0.074700
     63 H231        30.7450    10.3670    33.7510 hc         1 VG4       0.044700
     64 H232        32.0170     9.1530    33.7800 hc         1 VG4       0.044700
     65 H271        29.1550     9.0420    30.5890 hc         1 VG4       0.044700
     66 H272        29.0020    10.3020    31.8070 hc         1 VG4       0.044700
     67 H241        32.8770    11.3400    32.9420 hc         1 VG4       0.042700
     68 H242        33.0190    10.0910    31.7230 hc         1 VG4       0.042700
     69 H251        30.8210    12.2060    31.8730 hc         1 VG4       0.039200
     70 H252        32.1220    12.1520    30.6980 hc         1 VG4       0.039200
     71 H261        29.9890    11.2410    29.7570 hc         1 VG4       0.042700
     72 H262        31.2610    10.0360    29.7700 hc         1 VG4       0.042700
     73 H57         28.8190    -3.8780    31.4470 ha         1 VG4       0.131000
     74 H58         31.1190    -4.0060    30.5480 ha         1 VG4       0.132000
     75 H59         32.2380    -1.9480    29.7470 ha         1 VG4       0.131000
     76 H671        29.1540    -3.7150    34.0630 h1         1 VG4       0.056200
     77 H672        28.4480    -4.8240    35.2270 h1         1 VG4       0.056200
     78 H681        26.7280    -3.1100    35.8360 hc         1 VG4       0.052700
     79 H682        27.3480    -2.0360    34.5990 hc         1 VG4       0.052700
     80 H711        25.4210    -3.2920    33.7020 hc         1 VG4       0.035700
     81 H712        26.8660    -3.8110    32.8480 hc         1 VG4       0.035700
     82 H713        26.1800    -4.8280    34.1080 hc         1 VG4       0.035700
     83 H78         33.9110     0.6620    37.2030 h4         1 VG4       0.174000
     84 H79         34.7740     1.4020    39.5880 ha         1 VG4       0.161000
     85 H801        33.2190    -0.2250    41.1110 hc         1 VG4       0.090200
     86 H802        32.3950     1.3110    40.9360 hc         1 VG4       0.090200
@<TRIPOS>BOND
     1     1     2 ar  
     2     1     6 ar  
     3     1    37 1   
     4     2     3 ar  
     5     2    43 1   
     6     3     4 ar  
     7     3     7 1   
     8     4     5 ar  
     9     4    45 1   
    10     5     6 ar  
    11     5    33 1   
    12     6    44 1   
    13     7     8 1   
    14     7     9 2   
    15     8    10 1   
    16     8    46 1   
    17    10    11 1   
    18    10    12 1   
    19    10    47 1   
    20    11    14 1   
    21    11    48 1   
    22    11    49 1   
    23    12    13 1   
    24    12    15 1   
    25    12    50 1   
    26    13    51 1   
    27    14    28 ar  
    28    14    32 ar  
    29    15    16 1   
    30    15    52 1   
    31    15    53 1   
    32    16    17 1   
    33    16    56 1   
    34    17    18 1   
    35    17    22 1   
    36    17    57 1   
    37    18    19 1   
    38    18    20 2   
    39    19    21 1   
    40    19    61 1   
    41    21    23 1   
    42    21    27 1   
    43    21    62 1   
    44    22    58 1   
    45    22    59 1   
    46    22    60 1   
    47    23    24 1   
    48    23    63 1   
    49    23    64 1   
    50    24    25 1   
    51    24    67 1   
    52    24    68 1   
    53    25    26 1   
    54    25    69 1   
    55    25    70 1   
    56    26    27 1   
    57    26    71 1   
    58    26    72 1   
    59    27    65 1   
    60    27    66 1   
    61    28    29 ar  
    62    28    54 1   
    63    29    30 ar  
    64    29    73 1   
    65    30    31 ar  
    66    30    74 1   
    67    31    32 ar  
    68    31    75 1   
    69    32    55 1   
    70    33    34 1   
    71    34    35 1   
    72    34    76 1   
    73    34    77 1   
    74    35    36 1   
    75    35    78 1   
    76    35    79 1   
    77    36    80 1   
    78    36    81 1   
    79    36    82 1   
    80    37    38 1   
    81    37    41 1   
    82    38    39 2   
    83    38    83 1   
    84    39    40 1   
    85    39    84 1   
    86    40    41 1   
    87    40    85 1   
    88    40    86 1   
    89    41    42 2   
@<TRIPOS>SUBSTRUCTURE
     1 VG4         1 TEMP              0 ****  ****    0 ROOT
