@<TRIPOS>MOLECULE
VG4
   86    89     1     0     0
SMALL
No Charge or Current Charge


@<TRIPOS>ATOM
      1 C1          31.6590    -0.6040    37.1080 ca         1 VG4      -0.001000
      2 C2          31.4890     0.3390    36.0750 ca         1 VG4      -0.130000
      3 C3          30.6480     0.0750    34.9720 ca         1 VG4      -0.097600
      4 C4          29.9920    -1.1780    34.9020 ca         1 VG4      -0.196000
      5 C5          30.1610    -2.1330    35.9270 ca         1 VG4       0.158100
      6 C6          30.9880    -1.8390    37.0200 ca         1 VG4      -0.134000
      7 C7          30.4900     1.1200    33.8840 c          1 VG4       0.616700
      8 N8          29.4020     0.9610    33.0530 ns         1 VG4      -0.501900
      9 O9          31.2880     2.0340    33.7300 o          1 VG4      -0.589100
     10 C10         29.1820     1.6840    31.7890 c3         1 VG4       0.081700
     11 C11         28.6480     0.6890    30.7210 c3         1 VG4      -0.049100
     12 C12         28.2670     2.9390    31.9660 c3         1 VG4       0.155300
     13 O13         28.1140     3.6250    30.7030 oh         1 VG4      -0.662000
     14 C14         29.3270    -0.6810    30.7630 ca         1 VG4      -0.078300
     15 C15         28.7890     3.9440    33.0360 c3         1 VG4       0.169800
     16 N16         27.9050     5.1400    33.1170 n7         1 VG4      -0.879400
     17 C17         28.3900     6.2970    33.9420 c3         1 VG4       0.118500
     18 C18         29.7180     6.9640    33.4260 c          1 VG4       0.555100
     19 N19         29.5390     8.1070    32.6730 ns         1 VG4      -0.506900
     20 O20         30.8370     6.5310    33.6780 o          1 VG4      -0.597100
     21 C21         30.6110     8.9310    32.1030 c6         1 VG4       0.112700
     22 C22         28.4800     5.9080    35.4370 c3         1 VG4      -0.083100
     23 C23         31.1700     9.9110    33.1690 c6         1 VG4      -0.089900
     24 C24         32.2750    10.8220    32.5770 c6         1 VG4      -0.071400
     25 C25         31.7560    11.6010    31.3440 c6         1 VG4      -0.077400
     26 C26         31.1770    10.6380    30.2790 c6         1 VG4      -0.071400
     27 C27         30.0780     9.7300    30.8860 c6         1 VG4      -0.089900
     28 C56         28.5650    -1.8430    31.0010 ca         1 VG4      -0.106500
     29 C57         29.1890    -3.1000    31.0670 ca         1 VG4      -0.109500
     30 C58         30.5800    -3.2050    30.9000 ca         1 VG4      -0.108000
     31 C59         31.3450    -2.0520    30.6580 ca         1 VG4      -0.109500
     32 C60         30.7200    -0.7940    30.5880 ca         1 VG4      -0.106500
     33 O66         29.5690    -3.3830    35.8950 os         1 VG4      -0.342100
     34 C67         28.6470    -3.8040    34.8700 c3         1 VG4       0.161600
     35 C68         27.2710    -3.1460    35.1250 c3         1 VG4      -0.112400
     36 C71         26.2160    -3.5410    34.0730 c3         1 VG4      -0.092100
     37 N77         32.5250    -0.3070    38.2200 n          1 VG4      -0.157600
     38 C78         33.6960     0.4620    38.1450 c2         1 VG4      -0.070400
     39 C79         34.2990     0.6200    39.3210 c2         1 VG4      -0.299200
     40 C80         33.4810    -0.1330    40.3570 c5         1 VG4      -0.131200
     41 C81         32.2750    -0.6940    39.5610 c          1 VG4       0.562000
     42 O88         31.2830    -1.2730    39.9880 o          1 VG4      -0.513000
     43 H2          31.9930     1.3010    36.1370 ha         1 VG4       0.139000
     44 H6          31.1230    -2.5960    37.7870 ha         1 VG4       0.149000
     45 H4          29.3810    -1.4140    34.0380 ha         1 VG4       0.128000
     46 H8          28.7920     0.1830    33.2630 hn         1 VG4       0.314500
     47 H10         30.1610     2.0410    31.4380 h1         1 VG4       0.098700
     48 H111        27.5670     0.5680    30.8650 hc         1 VG4       0.052200
     49 H112        28.7740     1.1280    29.7240 hc         1 VG4       0.052200
     50 H12         27.2840     2.5870    32.3080 h1         1 VG4       0.038700
     51 H13         27.4430     3.1310    30.1840 ho         1 VG4       0.442000
     52 H151        28.8400     3.4390    34.0100 h1         1 VG4       0.061200
     53 H152        29.8130     4.2300    32.7580 h1         1 VG4       0.061200
     54 H56         27.4880    -1.7740    31.1370 ha         1 VG4       0.112500
     55 H60         31.3220     0.0930    30.4040 ha         1 VG4       0.112500
     56 H16         27.7770     5.4580    32.1450 hn         1 VG4       0.426000
     57 H17         27.6270     7.0860    33.8880 h1         1 VG4       0.052700
     58 H221        29.2680     5.1650    35.6100 hc         1 VG4       0.048033
     59 H222        28.7090     6.7910    36.0460 hc         1 VG4       0.048033
     60 H223        27.5280     5.4920    35.7870 hc         1 VG4       0.048033
     61 H19         28.5820     8.3960    32.5110 hn         1 VG4       0.307500
     62 H21         31.4210     8.2680    31.7640 h1         1 VG4       0.074700
     63 H231        30.3570    10.5320    33.5700 hc         1 VG4       0.044700
     64 H232        31.5790     9.3470    34.0190 hc         1 VG4       0.044700
     65 H271        29.7110     9.0360    30.1180 hc         1 VG4       0.044700
     66 H272        29.2190    10.3460    31.1870 hc         1 VG4       0.044700
     67 H241        32.6280    11.5270    33.3420 hc         1 VG4       0.042700
     68 H242        33.1440    10.2120    32.2910 hc         1 VG4       0.042700
     69 H251        30.9820    12.3150    31.6570 hc         1 VG4       0.039200
     70 H252        32.5710    12.1950    30.9080 hc         1 VG4       0.039200
     71 H261        30.7640    11.2150    29.4400 hc         1 VG4       0.042700
     72 H262        31.9830    10.0170    29.8640 hc         1 VG4       0.042700
     73 H57         28.5950    -3.9930    31.2510 ha         1 VG4       0.113000
     74 H58         31.0630    -4.1780    30.9540 ha         1 VG4       0.114000
     75 H59         32.4220    -2.1320    30.5270 ha         1 VG4       0.113000
     76 H671        29.0230    -3.5610    33.8680 h1         1 VG4       0.056200
     77 H672        28.5230    -4.8940    34.9130 h1         1 VG4       0.056200
     78 H681        26.9120    -3.4410    36.1180 hc         1 VG4       0.052700
     79 H682        27.3670    -2.0540    35.1330 hc         1 VG4       0.052700
     80 H711        25.2560    -3.0590    34.2930 hc         1 VG4       0.035700
     81 H712        26.5330    -3.2310    33.0700 hc         1 VG4       0.035700
     82 H713        26.0610    -4.6270    34.0670 hc         1 VG4       0.035700
     83 H78         34.0150     0.8460    37.1730 h4         1 VG4       0.224000
     84 H79         35.2260     1.1760    39.4890 ha         1 VG4       0.211000
     85 H801        34.0300    -0.9720    40.7990 hc         1 VG4       0.090200
     86 H802        33.1160     0.4850    41.1840 hc         1 VG4       0.090200
@<TRIPOS>BOND
     1     1     2 ar  
     2     1     6 ar  
     3     1    37 1   
     4     2     3 ar  
     5     2    43 1   
     6     3     4 ar  
     7     3     7 1   
     8     4     5 ar  
     9     4    45 1   
    10     5     6 ar  
    11     5    33 1   
    12     6    44 1   
    13     7     8 1   
    14     7     9 2   
    15     8    10 1   
    16     8    46 1   
    17    10    11 1   
    18    10    12 1   
    19    10    47 1   
    20    11    14 1   
    21    11    48 1   
    22    11    49 1   
    23    12    13 1   
    24    12    15 1   
    25    12    50 1   
    26    13    51 1   
    27    14    28 ar  
    28    14    32 ar  
    29    15    16 1   
    30    15    52 1   
    31    15    53 1   
    32    16    17 1   
    33    16    56 1   
    34    17    18 1   
    35    17    22 1   
    36    17    57 1   
    37    18    19 1   
    38    18    20 2   
    39    19    21 1   
    40    19    61 1   
    41    21    23 1   
    42    21    27 1   
    43    21    62 1   
    44    22    58 1   
    45    22    59 1   
    46    22    60 1   
    47    23    24 1   
    48    23    63 1   
    49    23    64 1   
    50    24    25 1   
    51    24    67 1   
    52    24    68 1   
    53    25    26 1   
    54    25    69 1   
    55    25    70 1   
    56    26    27 1   
    57    26    71 1   
    58    26    72 1   
    59    27    65 1   
    60    27    66 1   
    61    28    29 ar  
    62    28    54 1   
    63    29    30 ar  
    64    29    73 1   
    65    30    31 ar  
    66    30    74 1   
    67    31    32 ar  
    68    31    75 1   
    69    32    55 1   
    70    33    34 1   
    71    34    35 1   
    72    34    76 1   
    73    34    77 1   
    74    35    36 1   
    75    35    78 1   
    76    35    79 1   
    77    36    80 1   
    78    36    81 1   
    79    36    82 1   
    80    37    38 1   
    81    37    41 1   
    82    38    39 2   
    83    38    83 1   
    84    39    40 1   
    85    39    84 1   
    86    40    41 1   
    87    40    85 1   
    88    40    86 1   
    89    41    42 2   
@<TRIPOS>SUBSTRUCTURE
     1 VG4         1 TEMP              0 ****  ****    0 ROOT
