@<TRIPOS>MOLECULE
VG5
   86    89     1     0     0
SMALL
No Charge or Current Charge


@<TRIPOS>ATOM
      1 C1           4.7110     0.7830    -1.7350 ca         1 VG5       0.016000
      2 C2           3.3590     0.4230    -1.5490 ca         1 VG5      -0.155000
      3 C3           2.8230     0.1780    -0.2650 ca         1 VG5      -0.084600
      4 C4           3.6700     0.3340     0.8570 ca         1 VG5      -0.191000
      5 C5           5.0000     0.7480     0.6960 ca         1 VG5       0.335000
      6 C6           5.5020     1.0010    -0.5860 ca         1 VG5      -0.184000
      7 C7           1.3730    -0.2530    -0.1200 c          1 VG5       0.618700
      8 N8           0.8720    -0.2480     1.1620 ns         1 VG5      -0.491900
      9 O9           0.6930    -0.6170    -1.0720 o          1 VG5      -0.608100
     10 C10         -0.4330    -0.7820     1.5770 c3         1 VG5       0.086700
     11 C11         -0.4140    -1.0710     3.1060 c3         1 VG5      -0.048100
     12 C12         -1.6210     0.1170     1.0980 c3         1 VG5       0.141300
     13 O13         -1.5090     1.4570     1.6350 oh         1 VG5      -0.650000
     14 C14          0.8900    -1.7180     3.5730 ca         1 VG5      -0.076300
     15 C15         -3.0170    -0.4830     1.4370 c3         1 VG5       0.134800
     16 N16         -4.1050     0.3330     0.8480 n7         1 VG5      -0.855400
     17 C17         -5.5170    -0.0980     1.1070 c3         1 VG5       0.097500
     18 C18         -6.5630     0.6670     0.2160 c          1 VG5       0.611100
     19 N19         -7.2630    -0.1210    -0.6760 ns         1 VG5      -0.502900
     20 O20         -6.7540     1.8760     0.2970 o          1 VG5      -0.600100
     21 C21         -8.2750     0.3560    -1.6260 c6         1 VG5       0.109700
     22 C22         -5.8650     0.0590     2.6070 c3         1 VG5      -0.127100
     23 C23         -9.2330    -0.8030    -2.0070 c6         1 VG5      -0.088900
     24 C24        -10.2960    -0.3430    -3.0370 c6         1 VG5      -0.071900
     25 C25         -9.6280     0.2450    -4.3040 c6         1 VG5      -0.077400
     26 C26         -8.6520     1.3900    -3.9400 c6         1 VG5      -0.071900
     27 C27         -7.6000     0.9210    -2.9040 c6         1 VG5      -0.088900
     28 C56          1.7850    -1.0040     4.3960 ca         1 VG5      -0.105500
     29 C57          2.9990    -1.5860     4.7970 ca         1 VG5      -0.107500
     30 C58          3.3280    -2.8860     4.3790 ca         1 VG5      -0.107000
     31 C59          2.4390    -3.6040     3.5610 ca         1 VG5      -0.107500
     32 C60          1.2240    -3.0220     3.1600 ca         1 VG5      -0.105500
     33 N1           5.8400     0.9140     1.7990 nu         1 VG5      -0.956200
     34 C67          5.6260     0.3990     3.1580 c3         1 VG5       0.213800
     35 C68          6.8360     0.7170     4.0490 c3         1 VG5      -0.106100
     36 N77          5.1430     1.1730    -3.0590 n          1 VG5      -0.235400
     37 C78          4.6650     0.4410    -4.2560 c5         1 VG5       0.095000
     38 C79          5.7760     0.7670    -5.2990 c5         1 VG5      -0.092400
     39 C80          6.1050     2.2250    -4.9000 c5         1 VG5      -0.169400
     40 C81          6.0820     2.1780    -3.3740 c          1 VG5       0.567000
     41 O88          6.8300     2.7560    -2.5970 o          1 VG5      -0.530000
     42 H2           2.7060     0.3330    -2.4130 ha         1 VG5       0.132000
     43 H6           6.5340     1.3170    -0.6790 ha         1 VG5       0.135000
     44 H4           3.3030     0.1340     1.8570 ha         1 VG5       0.119000
     45 H1           6.7800     1.2500     1.5830 hn         1 VG5       0.474000
     46 H8           1.4990     0.0750     1.8850 hn         1 VG5       0.324500
     47 H10         -0.5460    -1.7530     1.0730 h1         1 VG5       0.088700
     48 H111        -0.5770    -0.1380     3.6560 hc         1 VG5       0.048700
     49 H112        -1.2570    -1.7250     3.3610 hc         1 VG5       0.048700
     50 H12         -1.5640     0.1610     0.0010 h1         1 VG5       0.107700
     51 H13         -1.5480     1.3840     2.6110 ho         1 VG5       0.432000
     52 H151        -3.0680    -1.5110     1.0510 h1         1 VG5       0.031200
     53 H152        -3.1210    -0.5350     2.5280 h1         1 VG5       0.031200
     54 H56          1.5440     0.0060     4.7220 ha         1 VG5       0.109500
     55 H60          0.5450    -3.5840     2.5220 ha         1 VG5       0.109500
     56 H16         -3.9860     1.3080     1.1600 hn         1 VG5       0.443000
     57 H17         -5.6190    -1.1630     0.8560 h1         1 VG5       0.056700
     58 H221        -5.7150     1.0940     2.9400 hc         1 VG5       0.045367
     59 H222        -6.9160    -0.2040     2.7810 hc         1 VG5       0.045367
     60 H223        -5.2540    -0.6010     3.2320 hc         1 VG5       0.045367
     61 H19         -7.0320    -1.1060    -0.6820 hn         1 VG5       0.305500
     62 H21         -8.8600     1.1550    -1.1450 h1         1 VG5       0.082700
     63 H231        -8.6590    -1.6430    -2.4230 hc         1 VG5       0.043700
     64 H232        -9.7350    -1.1820    -1.1070 hc         1 VG5       0.043700
     65 H271        -6.9460     1.7630    -2.6410 hc         1 VG5       0.043700
     66 H272        -6.9540     0.1550    -3.3560 hc         1 VG5       0.043700
     67 H241       -10.9390    -1.1890    -3.3130 hc         1 VG5       0.042950
     68 H242       -10.9520     0.4120    -2.5800 hc         1 VG5       0.042950
     69 H251        -9.0850    -0.5480    -4.8370 hc         1 VG5       0.039700
     70 H252       -10.3970     0.6150    -4.9950 hc         1 VG5       0.039700
     71 H261        -8.1470     1.7520    -4.8470 hc         1 VG5       0.042950
     72 H262        -9.2150     2.2420    -3.5350 hc         1 VG5       0.042950
     73 H57          3.6850    -1.0300     5.4320 ha         1 VG5       0.112000
     74 H58          4.2690    -3.3360     4.6880 ha         1 VG5       0.113000
     75 H59          2.6930    -4.6110     3.2360 ha         1 VG5       0.112000
     76 H671         4.7270     0.8520     3.5980 h1         1 VG5       0.035700
     77 H672         5.4780    -0.6900     3.1280 h1         1 VG5       0.035700
     78 H681         6.9950     1.7990     4.1180 hc         1 VG5       0.042700
     79 H682         6.6690     0.3300     5.0620 hc         1 VG5       0.042700
     80 H683         7.7460     0.2520     3.6520 hc         1 VG5       0.042700
     81 H78          4.5750    -0.6380    -4.0740 h1         1 VG5       0.057200
     82 H79          6.6470     0.1120    -5.1680 hc         1 VG5       0.059200
     83 H801         7.0520     2.6220    -5.2800 hc         1 VG5       0.078700
     84 H802         5.2820     2.8700    -5.2290 hc         1 VG5       0.078700
     85 H7A          3.6880     0.8250    -4.5780 h1         1 VG5       0.057200
     86 H7B          5.4320     0.6650    -6.3350 hc         1 VG5       0.059200
@<TRIPOS>BOND
     1     1     2 ar  
     2     1     6 ar  
     3     1    36 1   
     4     2     3 ar  
     5     2    42 1   
     6     3     4 ar  
     7     3     7 1   
     8     4     5 ar  
     9     4    44 1   
    10     5     6 ar  
    11     5    33 1   
    12     6    43 1   
    13     7     8 1   
    14     7     9 2   
    15     8    10 1   
    16     8    46 1   
    17    10    11 1   
    18    10    12 1   
    19    10    47 1   
    20    11    14 1   
    21    11    48 1   
    22    11    49 1   
    23    12    13 1   
    24    12    15 1   
    25    12    50 1   
    26    13    51 1   
    27    14    28 ar  
    28    14    32 ar  
    29    15    16 1   
    30    15    52 1   
    31    15    53 1   
    32    16    17 1   
    33    16    56 1   
    34    17    18 1   
    35    17    22 1   
    36    17    57 1   
    37    18    19 1   
    38    18    20 2   
    39    19    21 1   
    40    19    61 1   
    41    21    23 1   
    42    21    27 1   
    43    21    62 1   
    44    22    58 1   
    45    22    59 1   
    46    22    60 1   
    47    23    24 1   
    48    23    63 1   
    49    23    64 1   
    50    24    25 1   
    51    24    67 1   
    52    24    68 1   
    53    25    26 1   
    54    25    69 1   
    55    25    70 1   
    56    26    27 1   
    57    26    71 1   
    58    26    72 1   
    59    27    65 1   
    60    27    66 1   
    61    28    29 ar  
    62    28    54 1   
    63    29    30 ar  
    64    29    73 1   
    65    30    31 ar  
    66    30    74 1   
    67    31    32 ar  
    68    31    75 1   
    69    32    55 1   
    70    33    34 1   
    71    33    45 1   
    72    34    35 1   
    73    34    76 1   
    74    34    77 1   
    75    35    78 1   
    76    35    79 1   
    77    35    80 1   
    78    36    37 1   
    79    36    40 1   
    80    37    38 1   
    81    37    81 1   
    82    37    85 1   
    83    38    39 1   
    84    38    82 1   
    85    38    86 1   
    86    39    40 1   
    87    39    83 1   
    88    39    84 1   
    89    40    41 2   
@<TRIPOS>SUBSTRUCTURE
     1 VG5         1 TEMP              0 ****  ****    0 ROOT
