@<TRIPOS>MOLECULE
VG5
   86    89     1     0     0
SMALL
bcc


@<TRIPOS>ATOM
      1 C1           4.7690     0.9840    -1.5170 ca         1 VG5       0.108600
      2 C2           3.5210     0.3650    -1.4100 ca         1 VG5      -0.173000
      3 C3           3.0360     0.0370    -0.1530 ca         1 VG5      -0.084600
      4 C4           3.7800     0.2830     0.9950 ca         1 VG5      -0.209000
      5 C5           5.0400     0.8820     0.8930 ca         1 VG5       0.196600
      6 C6           5.5230     1.2290    -0.3760 ca         1 VG5      -0.202000
      7 C7           1.6920    -0.6150    -0.0590 c          1 VG5       0.685700
      8 N8           0.9520    -0.2200     0.9900 ns         1 VG5      -0.558900
      9 O9           1.3170    -1.4330    -0.8880 o          1 VG5      -0.608100
     10 C10         -0.3320    -0.7760     1.3470 c3         1 VG5       0.086700
     11 C11         -0.3480    -1.1040     2.8470 c3         1 VG5      -0.048100
     12 C12         -1.4570     0.1700     0.9030 c3         1 VG5       0.118100
     13 O13         -1.2740     1.4800     1.4010 oh         1 VG5      -0.587800
     14 C14          0.8300    -1.9490     3.2460 ca         1 VG5      -0.076300
     15 C15         -2.8430    -0.3660     1.2310 c3         1 VG5       0.134800
     16 N16         -3.8510     0.3930     0.5180 n7         1 VG5      -0.800200
     17 C17         -5.2180    -0.0040     0.8010 c3         1 VG5       0.097500
     18 C18         -6.1210     0.7060    -0.2010 c          1 VG5       0.678100
     19 N19         -7.0670    -0.0610    -0.7600 ns         1 VG5      -0.569900
     20 O20         -5.9890     1.9020    -0.4260 o          1 VG5      -0.600100
     21 C21         -8.0630     0.4030    -1.7060 c6         1 VG5       0.109700
     22 C22         -5.7080     0.3200     2.2160 c3         1 VG5      -0.127100
     23 C23         -9.4470    -0.1070    -1.3110 c6         1 VG5      -0.088900
     24 C24        -10.5070     0.3460    -2.3100 c6         1 VG5      -0.071900
     25 C25        -10.1510    -0.0740    -3.7320 c6         1 VG5      -0.077400
     26 C26         -8.7700     0.4380    -4.1270 c6         1 VG5      -0.071900
     27 C27         -7.7060    -0.0140    -3.1320 c6         1 VG5      -0.088900
     28 C56          1.8800    -1.4050     3.9800 ca         1 VG5      -0.123500
     29 C57          2.9870    -2.1720     4.3190 ca         1 VG5      -0.125500
     30 C58          3.0600    -3.5010     3.9260 ca         1 VG5      -0.125000
     31 C59          2.0160    -4.0560     3.1950 ca         1 VG5      -0.125500
     32 C60          0.9120    -3.2850     2.8590 ca         1 VG5      -0.123500
     33 N1           5.8040     1.1520     1.9960 nu         1 VG5      -0.762600
     34 C67          5.5140     0.5890     3.2950 c3         1 VG5       0.213800
     35 C68          6.5510     1.0320     4.3090 c3         1 VG5      -0.106100
     36 N77          5.2520     1.3230    -2.7890 n          1 VG5      -0.395000
     37 C78          4.7910     0.6260    -3.9870 c5         1 VG5       0.095000
     38 C79          5.7800     1.0850    -5.0530 c5         1 VG5      -0.092400
     39 C80          6.1610     2.4830    -4.5890 c5         1 VG5      -0.169400
     40 C81          5.9950     2.4310    -3.0880 c          1 VG5       0.709500
     41 O88          6.4170     3.2440    -2.2910 o          1 VG5      -0.605500
     42 H2           2.9230     0.1620    -2.2870 ha         1 VG5       0.150000
     43 H6           6.5030     1.6770    -0.4530 ha         1 VG5       0.153000
     44 H4           3.4000    -0.0340     1.9570 ha         1 VG5       0.137000
     45 H1           6.7820     1.3090     1.8090 hn         1 VG5       0.418800
     46 H8           1.2880     0.5530     1.5420 hn         1 VG5       0.324500
     47 H10         -0.4510    -1.7070     0.7900 h1         1 VG5       0.088700
     48 H111        -0.3430    -0.1840     3.4390 hc         1 VG5       0.048700
     49 H112        -1.2790    -1.6230     3.0850 hc         1 VG5       0.048700
     50 H12         -1.3810     0.2600    -0.1850 h1         1 VG5       0.107700
     51 H13         -1.4900     1.4950     2.3400 ho         1 VG5       0.393000
     52 H151        -2.9070    -1.4130     0.9180 h1         1 VG5       0.031200
     53 H152        -2.9830    -0.3620     2.3240 h1         1 VG5       0.031200
     54 H56          1.8280    -0.3690     4.2950 ha         1 VG5       0.127500
     55 H60          0.1030    -3.7310     2.2910 ha         1 VG5       0.127500
     56 H16         -3.7440     1.3790     0.7230 hn         1 VG5       0.387800
     57 H17         -5.2840    -1.0860     0.6490 h1         1 VG5       0.056700
     58 H221        -5.6450     1.3920     2.4080 hc         1 VG5       0.045367
     59 H222        -6.7450     0.0100     2.3550 hc         1 VG5       0.045367
     60 H223        -5.1110    -0.1960     2.9680 hc         1 VG5       0.045367
     61 H19         -7.0680    -1.0450    -0.5430 hn         1 VG5       0.305500
     62 H21         -8.0700     1.4940    -1.6540 h1         1 VG5       0.082700
     63 H231        -9.4330    -1.2020    -1.2690 hc         1 VG5       0.043700
     64 H232        -9.6930     0.2450    -0.3060 hc         1 VG5       0.043700
     65 H271        -6.7310     0.4020    -3.4000 hc         1 VG5       0.043700
     66 H272        -7.6060    -1.1050    -3.1730 hc         1 VG5       0.043700
     67 H241       -11.4800    -0.0610    -2.0250 hc         1 VG5       0.042950
     68 H242       -10.6040     1.4360    -2.2670 hc         1 VG5       0.042950
     69 H251       -10.1640    -1.1680    -3.8000 hc         1 VG5       0.039700
     70 H252       -10.9050     0.2910    -4.4340 hc         1 VG5       0.039700
     71 H261        -8.5080     0.0950    -5.1310 hc         1 VG5       0.042950
     72 H262        -8.7860     1.5320    -4.1690 hc         1 VG5       0.042950
     73 H57          3.7920    -1.7310     4.8940 ha         1 VG5       0.130000
     74 H58          3.9200    -4.1020     4.1900 ha         1 VG5       0.131000
     75 H59          2.0620    -5.0930     2.8870 ha         1 VG5       0.130000
     76 H671         4.5260     0.9260     3.6220 h1         1 VG5       0.035700
     77 H672         5.4740    -0.5080     3.2620 h1         1 VG5       0.035700
     78 H681         6.5760     2.1180     4.4000 hc         1 VG5       0.042700
     79 H682         6.3190     0.6160     5.2890 hc         1 VG5       0.042700
     80 H683         7.5490     0.6890     4.0310 hc         1 VG5       0.042700
     81 H78          4.8020    -0.4520    -3.8280 h1         1 VG5       0.057200
     82 H79          6.6570     0.4350    -5.0500 hc         1 VG5       0.059200
     83 H801         7.1700     2.7890    -4.8590 hc         1 VG5       0.078700
     84 H802         5.4740     3.2400    -4.9780 hc         1 VG5       0.078700
     85 H7A          3.7690     0.9230    -4.2390 h1         1 VG5       0.057200
     86 H7B          5.3460     1.0600    -6.0500 hc         1 VG5       0.059200
@<TRIPOS>BOND
     1     1     2 ar  
     2     1     6 ar  
     3     1    36 1   
     4     2     3 ar  
     5     2    42 1   
     6     3     4 ar  
     7     3     7 1   
     8     4     5 ar  
     9     4    44 1   
    10     5     6 ar  
    11     5    33 1   
    12     6    43 1   
    13     7     8 1   
    14     7     9 2   
    15     8    10 1   
    16     8    46 1   
    17    10    11 1   
    18    10    12 1   
    19    10    47 1   
    20    11    14 1   
    21    11    48 1   
    22    11    49 1   
    23    12    13 1   
    24    12    15 1   
    25    12    50 1   
    26    13    51 1   
    27    14    28 ar  
    28    14    32 ar  
    29    15    16 1   
    30    15    52 1   
    31    15    53 1   
    32    16    17 1   
    33    16    56 1   
    34    17    18 1   
    35    17    22 1   
    36    17    57 1   
    37    18    19 1   
    38    18    20 2   
    39    19    21 1   
    40    19    61 1   
    41    21    23 1   
    42    21    27 1   
    43    21    62 1   
    44    22    58 1   
    45    22    59 1   
    46    22    60 1   
    47    23    24 1   
    48    23    63 1   
    49    23    64 1   
    50    24    25 1   
    51    24    67 1   
    52    24    68 1   
    53    25    26 1   
    54    25    69 1   
    55    25    70 1   
    56    26    27 1   
    57    26    71 1   
    58    26    72 1   
    59    27    65 1   
    60    27    66 1   
    61    28    29 ar  
    62    28    54 1   
    63    29    30 ar  
    64    29    73 1   
    65    30    31 ar  
    66    30    74 1   
    67    31    32 ar  
    68    31    75 1   
    69    32    55 1   
    70    33    34 1   
    71    33    45 1   
    72    34    35 1   
    73    34    76 1   
    74    34    77 1   
    75    35    78 1   
    76    35    79 1   
    77    35    80 1   
    78    36    37 1   
    79    36    40 1   
    80    37    38 1   
    81    37    81 1   
    82    37    85 1   
    83    38    39 1   
    84    38    82 1   
    85    38    86 1   
    86    39    40 1   
    87    39    83 1   
    88    39    84 1   
    89    40    41 2   
@<TRIPOS>SUBSTRUCTURE
     1 VG5         1 TEMP              0 ****  ****    0 ROOT
