@<TRIPOS>MOLECULE
VG6
   76    79     1     0     0
SMALL
abcg2


@<TRIPOS>ATOM
      1 C1          30.1100    -2.0240    35.5110 ca         1 VG6       0.349000
      2 C2          29.9280    -1.0390    34.5290 ca         1 VG6      -0.192000
      3 C3          30.3370     0.2620    34.7840 ca         1 VG6      -0.085600
      4 C4          30.8940     0.6270    36.0000 ca         1 VG6      -0.170000
      5 C5          31.0200    -0.3350    37.0050 ca         1 VG6       0.023000
      6 C6          30.6490    -1.6500    36.7510 ca         1 VG6      -0.196000
      7 C7          30.2130     1.3070    33.7210 c          1 VG6       0.615700
      8 N8          29.0060     1.3670    33.1350 ns         1 VG6      -0.498900
      9 O9          31.1520     2.0340    33.4300 o          1 VG6      -0.607100
     10 C10         28.6860     2.1960    31.9940 c3         1 VG6       0.080700
     11 C11         27.9050     1.3690    30.9630 c3         1 VG6      -0.042100
     12 C12         27.9130     3.4560    32.4210 c3         1 VG6       0.149300
     13 O13         27.5180     4.2120    31.2960 oh         1 VG6      -0.653000
     14 C14         28.5790     0.0590    30.6580 ca         1 VG6      -0.079300
     15 C15         28.7080     4.3090    33.4020 c3         1 VG6       0.128800
     16 N16         27.9220     5.4380    33.8550 n7         1 VG6      -0.860400
     17 C17         27.9810    -1.1480    31.0070 ca         1 VG6      -0.107000
     18 C18         28.6100    -2.3590    30.7440 ca         1 VG6      -0.109000
     19 C19         29.8560    -2.3790    30.1340 ca         1 VG6      -0.110000
     20 C20         30.4620    -1.1800    29.7780 ca         1 VG6      -0.109000
     21 C21         29.8260     0.0260    30.0360 ca         1 VG6      -0.107000
     22 N38         29.8220    -3.3400    35.2850 nu         1 VG6      -0.964200
     23 C39         29.0370    -3.8110    34.1690 c3         1 VG6       0.216800
     24 C41         27.5520    -3.4790    34.2610 c3         1 VG6      -0.127100
     25 N47         31.5440     0.0500    38.2480 n          1 VG6      -0.233400
     26 C48         31.2250    -0.5000    39.4590 c          1 VG6       0.568000
     27 C49         31.8990     0.3240    40.5310 c5         1 VG6      -0.169400
     28 C50         32.9510     1.1230    39.7790 c5         1 VG6      -0.092400
     29 C51         32.3430     1.2630    38.3890 c5         1 VG6       0.094000
     30 O58         30.4910    -1.4500    39.6460 o          1 VG6      -0.532000
     31 C59         28.5730     6.2340    34.8800 c3         1 VG6       0.208100
     32 C61         29.9010     6.8360    34.4770 ca         1 VG6      -0.135300
     33 C64         31.1060     6.2360    34.8310 ca         1 VG6      -0.066000
     34 C65         32.3160     6.7680    34.4100 ca         1 VG6      -0.114000
     35 C66         32.3430     7.9130    33.6290 ca         1 VG6      -0.058000
     36 C67         31.1450     8.5210    33.2730 ca         1 VG6      -0.198300
     37 C68         29.9330     7.9820    33.6910 ca         1 VG6      -0.059000
     38 C73         31.1330     9.7370    32.4010 c3         1 VG6       0.356300
     39 F74         30.2410    10.6470    32.8170 f          1 VG6      -0.114667
     40 F75         30.8020     9.4330    31.1360 f          1 VG6      -0.114667
     41 F76         32.3210    10.3480    32.3520 f          1 VG6      -0.114667
     42 H2          29.5190    -1.2930    33.5580 ha         1 VG6       0.126000
     43 H6          30.7830    -2.4120    37.5040 ha         1 VG6       0.137000
     44 H38         29.8380    -3.9400    36.0930 hn         1 VG6       0.480000
     45 H4          31.1880     1.6540    36.1640 ha         1 VG6       0.124000
     46 H8          28.2700     0.7870    33.5080 hn         1 VG6       0.321500
     47 H10         29.6370     2.5070    31.5500 h1         1 VG6       0.076700
     48 H111        26.8950     1.1800    31.3400 hc         1 VG6       0.061200
     49 H112        27.7960     1.9570    30.0520 hc         1 VG6       0.061200
     50 H12         26.9830     3.1430    32.9090 h1         1 VG6       0.085700
     51 H13         28.3110     4.5030    30.8300 ho         1 VG6       0.439000
     52 H151        28.9620     3.7120    34.2800 h1         1 VG6       0.045700
     53 H152        29.6650     4.5920    32.9350 h1         1 VG6       0.045700
     54 H17         27.0060    -1.1430    31.4800 ha         1 VG6       0.111000
     55 H21         30.3080     0.9540    29.7500 ha         1 VG6       0.111000
     56 H16         27.6710     6.0260    33.0700 hn         1 VG6       0.423000
     57 H591        27.8870     7.0330    35.1720 h1         1 VG6       0.060200
     58 H592        28.7160     5.6050    35.7630 h1         1 VG6       0.060200
     59 H18         28.1240    -3.2890    31.0150 ha         1 VG6       0.113000
     60 H19         30.3490    -3.3210    29.9330 ha         1 VG6       0.114000
     61 H20         31.4310    -1.1850    29.2960 ha         1 VG6       0.113000
     62 H391        29.4540    -3.4160    33.2390 h1         1 VG6       0.052200
     63 H392        29.1710    -4.8910    34.1190 h1         1 VG6       0.052200
     64 H411        27.1010    -3.9540    35.1340 hc         1 VG6       0.040700
     65 H412        27.3830    -2.4050    34.3400 hc         1 VG6       0.040700
     66 H413        27.0250    -3.8350    33.3750 hc         1 VG6       0.040700
     67 H511        33.0920     1.3230    37.6000 h1         1 VG6       0.054700
     68 H512        31.7090     2.1540    38.3220 h1         1 VG6       0.054700
     69 H491        31.1390     0.9740    40.9740 hc         1 VG6       0.079200
     70 H492        32.2930    -0.3090    41.3250 hc         1 VG6       0.079200
     71 H501        33.1670     2.0900    40.2270 hc         1 VG6       0.060700
     72 H502        33.8840     0.5590    39.7200 hc         1 VG6       0.060700
     73 H64         31.1000     5.3440    35.4470 ha         1 VG6       0.120000
     74 H68         28.9980     8.4540    33.4130 ha         1 VG6       0.126000
     75 H65         33.2450     6.2910    34.6910 ha         1 VG6       0.124000
     76 H66         33.2940     8.3200    33.3130 ha         1 VG6       0.131000
@<TRIPOS>BOND
     1     1     2 ar  
     2     1     6 ar  
     3     1    22 1   
     4     2     3 ar  
     5     2    42 1   
     6     3     4 ar  
     7     3     7 1   
     8     4     5 ar  
     9     4    45 1   
    10     5     6 ar  
    11     5    25 1   
    12     6    43 1   
    13     7     8 1   
    14     7     9 2   
    15     8    10 1   
    16     8    46 1   
    17    10    11 1   
    18    10    12 1   
    19    10    47 1   
    20    11    14 1   
    21    11    48 1   
    22    11    49 1   
    23    12    13 1   
    24    12    15 1   
    25    12    50 1   
    26    13    51 1   
    27    14    17 ar  
    28    14    21 ar  
    29    15    16 1   
    30    15    52 1   
    31    15    53 1   
    32    16    31 1   
    33    16    56 1   
    34    17    18 ar  
    35    17    54 1   
    36    18    19 ar  
    37    18    59 1   
    38    19    20 ar  
    39    19    60 1   
    40    20    21 ar  
    41    20    61 1   
    42    21    55 1   
    43    22    23 1   
    44    22    44 1   
    45    23    24 1   
    46    23    62 1   
    47    23    63 1   
    48    24    64 1   
    49    24    65 1   
    50    24    66 1   
    51    25    26 1   
    52    25    29 1   
    53    26    27 1   
    54    26    30 2   
    55    27    28 1   
    56    27    69 1   
    57    27    70 1   
    58    28    29 1   
    59    28    71 1   
    60    28    72 1   
    61    29    67 1   
    62    29    68 1   
    63    31    32 1   
    64    31    57 1   
    65    31    58 1   
    66    32    33 ar  
    67    32    37 ar  
    68    33    34 ar  
    69    33    73 1   
    70    34    35 ar  
    71    34    75 1   
    72    35    36 ar  
    73    35    76 1   
    74    36    37 ar  
    75    36    38 1   
    76    37    74 1   
    77    38    39 1   
    78    38    40 1   
    79    38    41 1   
@<TRIPOS>SUBSTRUCTURE
     1 VG6         1 TEMP              0 ****  ****    0 ROOT
