@<TRIPOS>MOLECULE
VG6
   76    79     1     0     0
SMALL
No Charge or Current Charge


@<TRIPOS>ATOM
      1 C1          29.3550    -1.9080    35.8210 ca         1 VG6       0.349000
      2 C2          29.3660    -0.9130    34.8320 ca         1 VG6      -0.192000
      3 C3          30.2340     0.1990    34.9390 ca         1 VG6      -0.085600
      4 C4          31.1100     0.2580    36.0460 ca         1 VG6      -0.170000
      5 C5          31.1650    -0.7700    37.0110 ca         1 VG6       0.023000
      6 C6          30.2300    -1.8200    36.9100 ca         1 VG6      -0.196000
      7 C7          30.2470     1.3160    33.9070 c          1 VG6       0.615700
      8 N8          29.2480     1.2790    32.9570 ns         1 VG6      -0.498900
      9 O9          31.0960     2.1980    33.9050 o          1 VG6      -0.607100
     10 C10         29.1530     2.1650    31.7850 c3         1 VG6       0.080700
     11 C11         28.7960     1.3210    30.5320 c3         1 VG6      -0.042100
     12 C12         28.1710     3.3580    32.0200 c3         1 VG6       0.149300
     13 O13         28.1610     4.2280    30.8650 oh         1 VG6      -0.653000
     14 C14         29.6610     0.0710    30.3900 ca         1 VG6      -0.079300
     15 C15         28.5020     4.1900    33.2950 c3         1 VG6       0.128800
     16 N16         27.5550     5.3200    33.4670 n7         1 VG6      -0.860400
     17 C17         29.1120    -1.2070    30.6140 ca         1 VG6      -0.107000
     18 C18         29.9170    -2.3540    30.5060 ca         1 VG6      -0.109000
     19 C19         31.2760    -2.2310    30.1720 ca         1 VG6      -0.110000
     20 C20         31.8290    -0.9590    29.9450 ca         1 VG6      -0.109000
     21 C21         31.0240     0.1880    30.0540 ca         1 VG6      -0.107000
     22 N38         28.4900    -3.0030    35.7410 nu         1 VG6      -0.964200
     23 C39         27.2190    -3.0850    34.9990 c3         1 VG6       0.216800
     24 C41         26.1820    -2.1070    35.5790 c3         1 VG6      -0.127100
     25 N47         31.9720    -0.5600    38.1920 n          1 VG6      -0.233400
     26 C48         31.6710    -0.9880    39.5020 c          1 VG6       0.568000
     27 C49         32.8090    -0.4410    40.3620 c5         1 VG6      -0.169400
     28 C50         34.0080    -0.4270    39.3850 c5         1 VG6      -0.092400
     29 C51         33.3030     0.0850    38.0930 c5         1 VG6       0.094000
     30 O58         30.7880    -1.7650    39.8390 o          1 VG6      -0.532000
     31 C59         27.8690     6.2700    34.5530 c3         1 VG6       0.208100
     32 C61         29.1560     7.0330    34.2610 ca         1 VG6      -0.135300
     33 C64         30.3580     6.6680    34.8970 ca         1 VG6      -0.066000
     34 C65         31.5430     7.3680    34.6190 ca         1 VG6      -0.114000
     35 C66         31.5350     8.4390    33.7110 ca         1 VG6      -0.058000
     36 C67         30.3360     8.8260    33.0730 ca         1 VG6      -0.198300
     37 C68         29.1510     8.1090    33.3520 ca         1 VG6      -0.059000
     38 C73         30.3210     9.9880    32.0730 c3         1 VG6       0.356300
     39 F74         29.1510    10.6670    32.0930 f          1 VG6      -0.114667
     40 F75         30.5000     9.5470    30.8070 f          1 VG6      -0.114667
     41 F76         31.2960    10.8940    32.3170 f          1 VG6      -0.114667
     42 H2          28.6980    -1.0130    33.9850 ha         1 VG6       0.126000
     43 H6          30.2030    -2.6080    37.6530 ha         1 VG6       0.137000
     44 H38         28.6220    -3.7000    36.4750 hn         1 VG6       0.480000
     45 H4          31.7580     1.1250    36.1530 ha         1 VG6       0.124000
     46 H8          28.5880     0.5160    33.0310 hn         1 VG6       0.321500
     47 H10         30.1510     2.5890    31.6100 h1         1 VG6       0.076700
     48 H111        27.7360     1.0420    30.5810 hc         1 VG6       0.061200
     49 H112        28.9020     1.9420    29.6340 hc         1 VG6       0.061200
     50 H12         27.1680     2.9330    32.1650 h1         1 VG6       0.085700
     51 H13         29.0430     4.6560    30.8150 ho         1 VG6       0.439000
     52 H151        28.4630     3.5370    34.1770 h1         1 VG6       0.045700
     53 H152        29.5340     4.5560    33.2060 h1         1 VG6       0.045700
     54 H17         28.0620    -1.3150    30.8770 ha         1 VG6       0.111000
     55 H21         31.4620     1.1690    29.8820 ha         1 VG6       0.111000
     56 H16         27.5330     5.8420    32.5830 hn         1 VG6       0.423000
     57 H591        27.0510     6.9970    34.6670 h1         1 VG6       0.060200
     58 H592        27.9610     5.7440    35.5140 h1         1 VG6       0.060200
     59 H18         29.4880    -3.3380    30.6830 ha         1 VG6       0.113000
     60 H19         31.8990    -3.1190    30.0890 ha         1 VG6       0.114000
     61 H20         32.8810    -0.8620    29.6870 ha         1 VG6       0.113000
     62 H391        27.3770    -2.8680    33.9330 h1         1 VG6       0.052200
     63 H392        26.8160    -4.1050    35.0680 h1         1 VG6       0.052200
     64 H411        25.9930    -2.3250    36.6370 hc         1 VG6       0.040700
     65 H412        26.5250    -1.0690    35.4930 hc         1 VG6       0.040700
     66 H413        25.2340    -2.1980    35.0360 hc         1 VG6       0.040700
     67 H511        33.8420    -0.2130    37.1840 h1         1 VG6       0.054700
     68 H512        33.2020     1.1780    38.0980 h1         1 VG6       0.054700
     69 H491        32.5630     0.5930    40.6270 hc         1 VG6       0.079200
     70 H492        32.9450    -1.0280    41.2770 hc         1 VG6       0.079200
     71 H501        34.8280     0.2230    39.7100 hc         1 VG6       0.060700
     72 H502        34.4160    -1.4350    39.2400 hc         1 VG6       0.060700
     73 H64         30.3760     5.8370    35.6000 ha         1 VG6       0.120000
     74 H68         28.2200     8.3860    32.8600 ha         1 VG6       0.126000
     75 H65         32.4700     7.0770    35.1070 ha         1 VG6       0.124000
     76 H66         32.4670     8.9630    33.5040 ha         1 VG6       0.131000
@<TRIPOS>BOND
     1     1     2 ar  
     2     1     6 ar  
     3     1    22 1   
     4     2     3 ar  
     5     2    42 1   
     6     3     4 ar  
     7     3     7 1   
     8     4     5 ar  
     9     4    45 1   
    10     5     6 ar  
    11     5    25 1   
    12     6    43 1   
    13     7     8 1   
    14     7     9 2   
    15     8    10 1   
    16     8    46 1   
    17    10    11 1   
    18    10    12 1   
    19    10    47 1   
    20    11    14 1   
    21    11    48 1   
    22    11    49 1   
    23    12    13 1   
    24    12    15 1   
    25    12    50 1   
    26    13    51 1   
    27    14    17 ar  
    28    14    21 ar  
    29    15    16 1   
    30    15    52 1   
    31    15    53 1   
    32    16    31 1   
    33    16    56 1   
    34    17    18 ar  
    35    17    54 1   
    36    18    19 ar  
    37    18    59 1   
    38    19    20 ar  
    39    19    60 1   
    40    20    21 ar  
    41    20    61 1   
    42    21    55 1   
    43    22    23 1   
    44    22    44 1   
    45    23    24 1   
    46    23    62 1   
    47    23    63 1   
    48    24    64 1   
    49    24    65 1   
    50    24    66 1   
    51    25    26 1   
    52    25    29 1   
    53    26    27 1   
    54    26    30 2   
    55    27    28 1   
    56    27    69 1   
    57    27    70 1   
    58    28    29 1   
    59    28    71 1   
    60    28    72 1   
    61    29    67 1   
    62    29    68 1   
    63    31    32 1   
    64    31    57 1   
    65    31    58 1   
    66    32    33 ar  
    67    32    37 ar  
    68    33    34 ar  
    69    33    73 1   
    70    34    35 ar  
    71    34    75 1   
    72    35    36 ar  
    73    35    76 1   
    74    36    37 ar  
    75    36    38 1   
    76    37    74 1   
    77    38    39 1   
    78    38    40 1   
    79    38    41 1   
@<TRIPOS>SUBSTRUCTURE
     1 VG6         1 TEMP              0 ****  ****    0 ROOT
