@<TRIPOS>MOLECULE
VG7
   76    79     1     0     0
SMALL
bcc


@<TRIPOS>ATOM
      1 C1          30.4290    -1.9700    35.6750 ca         1 VG7       0.208600
      2 C2          30.3620    -0.9050    34.7660 ca         1 VG7      -0.212000
      3 C3          31.0160     0.2860    35.0530 ca         1 VG7      -0.086600
      4 C4          31.7330     0.4580    36.2280 ca         1 VG7      -0.182000
      5 C5          31.7700    -0.5840    37.1570 ca         1 VG7       0.112600
      6 C6          31.1320    -1.7860    36.8760 ca         1 VG7      -0.212000
      7 C7          30.9950     1.4110    34.0680 c          1 VG7       0.682700
      8 N8          29.7940     1.6620    33.5170 ns         1 VG7      -0.567900
      9 O9          32.0080     2.0440    33.8090 o          1 VG7      -0.601100
     10 C10         29.5750     2.5920    32.4320 c3         1 VG7       0.081700
     11 C11         28.7400     1.9140    31.3360 c3         1 VG7      -0.049100
     12 C12         28.9090     3.8870    32.9280 c3         1 VG7       0.136100
     13 O13         28.7260     4.7800    31.8480 oh         1 VG7      -0.598800
     14 C14         29.2750     0.5580    30.9670 ca         1 VG7      -0.078300
     15 C15         29.7480     4.5950    33.9790 c3         1 VG7       0.163800
     16 C17         28.5410    -0.5940    31.2370 ca         1 VG7      -0.124000
     17 C18         29.0420    -1.8510    30.9220 ca         1 VG7      -0.127000
     18 C19         30.2960    -1.9750    30.3420 ca         1 VG7      -0.126000
     19 C20         31.0380    -0.8320    30.0660 ca         1 VG7      -0.127000
     20 C21         30.5290     0.4210    30.3730 ca         1 VG7      -0.124000
     21 N38         29.8820    -3.1920    35.4100 nu         1 VG7      -0.770600
     22 C39         28.9680    -3.4430    34.3210 c3         1 VG7       0.216800
     23 C41         27.5850    -2.8270    34.4990 c3         1 VG7      -0.127100
     24 N47         32.4920    -0.4030    38.3460 n          1 VG7      -0.394000
     25 C48         32.1900    -0.9570    39.5590 c          1 VG7       0.710500
     26 C49         33.1540    -0.3930    40.5770 c5         1 VG7      -0.169400
     27 C50         34.2650     0.2220    39.7380 c5         1 VG7      -0.092400
     28 C51         33.5530     0.5950    38.4430 c5         1 VG7       0.095000
     29 O58         31.2880    -1.7380    39.7860 o          1 VG7      -0.609500
     30 N16         29.0970     5.8060    34.4370 n7         1 VG7      -0.817200
     31 C59         29.7970     6.4630    35.5310 c6         1 VG7       0.177500
     32 C61         29.4560     5.8350    36.8790 c6         1 VG7      -0.075400
     33 C62         30.3410     6.4180    37.9910 c6         1 VG7      -0.071400
     34 C63         30.7410     7.8750    37.7110 c6         1 VG7      -0.076400
     35 C64         29.6440     8.5940    36.9350 c6         1 VG7      -0.071400
     36 C65         29.4310     7.9520    35.5560 c6         1 VG7      -0.075400
     37 H2          29.8470    -1.0120    33.8190 ha         1 VG7       0.142000
     38 H6          31.1910    -2.6120    37.5690 ha         1 VG7       0.154000
     39 H38         29.8170    -3.8250    36.1900 hn         1 VG7       0.424800
     40 H4          32.2270     1.3990    36.4200 ha         1 VG7       0.147000
     41 H8          28.9980     1.1460    33.8590 hn         1 VG7       0.317500
     42 H10         30.5550     2.8450    32.0210 h1         1 VG7       0.093700
     43 H111        27.7030     1.8170    31.6710 hc         1 VG7       0.052200
     44 H112        28.7280     2.5590    30.4560 hc         1 VG7       0.052200
     45 H12         27.9420     3.6280    33.3830 h1         1 VG7       0.039700
     46 H13         27.9080     4.5580    31.3960 ho         1 VG7       0.403000
     47 H151        29.8660     3.9200    34.8280 h1         1 VG7       0.046700
     48 H152        30.7610     4.7790    33.5840 h1         1 VG7       0.046700
     49 H17         27.5610    -0.5080    31.6930 ha         1 VG7       0.129500
     50 H21         31.1170     1.3040    30.1490 ha         1 VG7       0.129500
     51 H16         29.0360     6.4470    33.6550 hn         1 VG7       0.366800
     52 H18         28.4500    -2.7340    31.1300 ha         1 VG7       0.130500
     53 H19         30.6920    -2.9530    30.1020 ha         1 VG7       0.132000
     54 H20         32.0140    -0.9180    29.6060 ha         1 VG7       0.130500
     55 H391        29.4180    -3.0970    33.3880 h1         1 VG7       0.051200
     56 H392        28.8780    -4.5250    34.2220 h1         1 VG7       0.051200
     57 H411        27.0810    -3.2470    35.3700 hc         1 VG7       0.040367
     58 H412        27.6380    -1.7460    34.6320 hc         1 VG7       0.040367
     59 H413        26.9640    -3.0240    33.6230 hc         1 VG7       0.040367
     60 H511        34.2030     0.5450    37.5700 h1         1 VG7       0.056700
     61 H512        33.1330     1.6040    38.4960 h1         1 VG7       0.056700
     62 H491        32.6220     0.3610    41.1640 hc         1 VG7       0.078200
     63 H492        33.4870    -1.1670    41.2670 hc         1 VG7       0.078200
     64 H501        34.7360     1.0830    40.2060 hc         1 VG7       0.060200
     65 H502        35.0390    -0.5190    39.5370 hc         1 VG7       0.060200
     66 H59         30.8900     6.3800    35.3920 h1         1 VG7       0.024700
     67 H611        28.3980     6.0230    37.0860 hc         1 VG7       0.043950
     68 H612        29.5720     4.7490    36.8460 hc         1 VG7       0.043950
     69 H651        30.0230     8.4760    34.8000 hc         1 VG7       0.043950
     70 H652        28.3830     8.0560    35.2610 hc         1 VG7       0.043950
     71 H621        29.8090     6.3580    38.9430 hc         1 VG7       0.037200
     72 H622        31.2420     5.8110    38.1050 hc         1 VG7       0.037200
     73 H631        30.9540     8.3930    38.6490 hc         1 VG7       0.037700
     74 H632        31.6680     7.9040    37.1310 hc         1 VG7       0.037700
     75 H641        28.7180     8.5590    37.5160 hc         1 VG7       0.037200
     76 H642        29.8850     9.6530    36.8210 hc         1 VG7       0.037200
@<TRIPOS>BOND
     1     1     2 ar  
     2     1     6 ar  
     3     1    21 1   
     4     2     3 ar  
     5     2    37 1   
     6     3     4 ar  
     7     3     7 1   
     8     4     5 ar  
     9     4    40 1   
    10     5     6 ar  
    11     5    24 1   
    12     6    38 1   
    13     7     8 1   
    14     7     9 2   
    15     8    10 1   
    16     8    41 1   
    17    10    11 1   
    18    10    12 1   
    19    10    42 1   
    20    11    14 1   
    21    11    43 1   
    22    11    44 1   
    23    12    13 1   
    24    12    15 1   
    25    12    45 1   
    26    13    46 1   
    27    14    16 ar  
    28    14    20 ar  
    29    15    30 1   
    30    15    47 1   
    31    15    48 1   
    32    16    17 ar  
    33    16    49 1   
    34    17    18 ar  
    35    17    52 1   
    36    18    19 ar  
    37    18    53 1   
    38    19    20 ar  
    39    19    54 1   
    40    20    50 1   
    41    21    22 1   
    42    21    39 1   
    43    22    23 1   
    44    22    55 1   
    45    22    56 1   
    46    23    57 1   
    47    23    58 1   
    48    23    59 1   
    49    24    25 1   
    50    24    28 1   
    51    25    26 1   
    52    25    29 2   
    53    26    27 1   
    54    26    62 1   
    55    26    63 1   
    56    27    28 1   
    57    27    64 1   
    58    27    65 1   
    59    28    60 1   
    60    28    61 1   
    61    30    31 1   
    62    30    51 1   
    63    31    32 1   
    64    31    36 1   
    65    31    66 1   
    66    32    33 1   
    67    32    67 1   
    68    32    68 1   
    69    33    34 1   
    70    33    71 1   
    71    33    72 1   
    72    34    35 1   
    73    34    73 1   
    74    34    74 1   
    75    35    36 1   
    76    35    75 1   
    77    35    76 1   
    78    36    69 1   
    79    36    70 1   
@<TRIPOS>SUBSTRUCTURE
     1 VG7         1 TEMP              0 ****  ****    0 ROOT
