@<TRIPOS>MOLECULE
VG7
   76    79     1     0     0
SMALL
No Charge or Current Charge


@<TRIPOS>ATOM
      1 C1          29.8800    -1.8170    35.9820 ca         1 VG7       0.347000
      2 C2          29.9440    -0.7500    35.0730 ca         1 VG7      -0.194000
      3 C3          30.9550     0.2340    35.1860 ca         1 VG7      -0.086600
      4 C4          31.9150     0.0900    36.2120 ca         1 VG7      -0.164000
      5 C5          31.9120    -1.0160    37.0880 ca         1 VG7       0.020000
      6 C6          30.8430    -1.9310    36.9920 ca         1 VG7      -0.194000
      7 C7          31.0310     1.4260    34.2450 c          1 VG7       0.615700
      8 N8          29.9740     1.5830    33.3730 ns         1 VG7      -0.500900
      9 O9          31.9750     2.2060    34.2490 o          1 VG7      -0.601100
     10 C10         29.9010     2.5850    32.2950 c3         1 VG7       0.081700
     11 C11         29.3850     1.9050    30.9990 c3         1 VG7      -0.049100
     12 C12         29.0660     3.8380    32.7120 c3         1 VG7       0.159300
     13 O13         29.0670     4.8170    31.6480 oh         1 VG7      -0.661000
     14 C14         30.1130     0.6010    30.6830 ca         1 VG7      -0.078300
     15 C15         29.5790     4.5040    34.0250 c3         1 VG7       0.163800
     16 C17         29.4570    -0.6380    30.8270 ca         1 VG7      -0.106000
     17 C18         30.1380    -1.8380    30.5570 ca         1 VG7      -0.109000
     18 C19         31.4790    -1.8060    30.1390 ca         1 VG7      -0.108000
     19 C20         32.1380    -0.5740    29.9910 ca         1 VG7      -0.109000
     20 C21         31.4580     0.6250    30.2630 ca         1 VG7      -0.106000
     21 N38         28.8760    -2.7840    35.8970 nu         1 VG7      -0.964200
     22 C39         27.5450    -2.6360    35.2830 c3         1 VG7       0.216800
     23 C41         26.7050    -1.5930    36.0420 c3         1 VG7      -0.127100
     24 N47         32.8290    -1.0100    38.2050 n          1 VG7      -0.234400
     25 C48         32.5790    -1.5070    39.5020 c          1 VG7       0.568000
     26 C49         33.8420    -1.1820    40.2950 c5         1 VG7      -0.169400
     27 C50         34.9520    -1.2330    39.2190 c5         1 VG7      -0.092400
     28 C51         34.2220    -0.5290    38.0370 c5         1 VG7       0.095000
     29 O58         31.6300    -2.1950    39.8560 o          1 VG7      -0.534000
     30 N16         28.8130     5.7360    34.3380 n7         1 VG7      -0.872400
     31 C59         29.3480     6.6200    35.3940 c6         1 VG7       0.177500
     32 C61         29.2820     5.9710    36.8040 c6         1 VG7      -0.075400
     33 C62         29.9650     6.8620    37.8820 c6         1 VG7      -0.071400
     34 C63         29.9450     8.3770    37.5320 c6         1 VG7      -0.076400
     35 C64         28.6770     8.7550    36.7330 c6         1 VG7      -0.071400
     36 C65         28.5920     7.9840    35.3830 c6         1 VG7      -0.075400
     37 H2          29.2020    -0.6920    34.2850 ha         1 VG7       0.124000
     38 H6          30.7730    -2.7710    37.6720 ha         1 VG7       0.136000
     39 H38         28.9750    -3.5550    36.5600 hn         1 VG7       0.480000
     40 H4          32.6760     0.8570    36.3260 ha         1 VG7       0.129000
     41 H8          29.2380     0.8940    33.4320 hn         1 VG7       0.317500
     42 H10         30.9230     2.9310    32.0890 h1         1 VG7       0.093700
     43 H111        28.3080     1.7190    31.0990 hc         1 VG7       0.052200
     44 H112        29.4970     2.5960    30.1550 hc         1 VG7       0.052200
     45 H12         28.0350     3.5070    32.8990 h1         1 VG7       0.039700
     46 H13         28.3950     4.5320    30.9920 ho         1 VG7       0.442000
     47 H151        29.4980     3.7840    34.8510 h1         1 VG7       0.046700
     48 H152        30.6450     4.7400    33.8960 h1         1 VG7       0.046700
     49 H17         28.4200    -0.6750    31.1530 ha         1 VG7       0.111500
     50 H21         31.9770     1.5740    30.1500 ha         1 VG7       0.111500
     51 H16         28.7890     6.2670    33.4580 hn         1 VG7       0.422000
     52 H18         29.6270    -2.7910    30.6720 ha         1 VG7       0.112500
     53 H19         32.0060    -2.7350    29.9300 ha         1 VG7       0.114000
     54 H20         33.1770    -0.5490    29.6690 ha         1 VG7       0.112500
     55 H391        27.6340    -2.3420    34.2280 h1         1 VG7       0.051200
     56 H392        27.0150    -3.5990    35.3100 h1         1 VG7       0.051200
     57 H411        26.5830    -1.8820    37.0930 hc         1 VG7       0.040367
     58 H412        27.1750    -0.6030    36.0040 hc         1 VG7       0.040367
     59 H413        25.7080    -1.5130    35.5920 hc         1 VG7       0.040367
     60 H511        34.6440    -0.8130    37.0640 h1         1 VG7       0.056700
     61 H512        34.2650     0.5640    38.1330 h1         1 VG7       0.056700
     62 H491        33.7550    -0.1510    40.6570 hc         1 VG7       0.078200
     63 H492        33.9710    -1.8560    41.1480 hc         1 VG7       0.078200
     64 H501        35.8730    -0.7190    39.5190 hc         1 VG7       0.060200
     65 H502        35.2120    -2.2680    38.9650 hc         1 VG7       0.060200
     66 H59         30.4060     6.8210    35.1670 h1         1 VG7       0.024700
     67 H611        28.2300     5.8060    37.0760 hc         1 VG7       0.043950
     68 H612        29.7580     4.9820    36.8060 hc         1 VG7       0.043950
     69 H651        29.0030     8.6070    34.5770 hc         1 VG7       0.043950
     70 H652        27.5320     7.8310    35.1360 hc         1 VG7       0.043950
     71 H621        29.4670     6.6970    38.8480 hc         1 VG7       0.037200
     72 H622        31.0070     6.5430    38.0210 hc         1 VG7       0.037200
     73 H631        30.0070     8.9740    38.4520 hc         1 VG7       0.037700
     74 H632        30.8350     8.6320    36.9400 hc         1 VG7       0.037700
     75 H641        27.7900     8.5280    37.3410 hc         1 VG7       0.037200
     76 H642        28.6520     9.8370    36.5470 hc         1 VG7       0.037200
@<TRIPOS>BOND
     1     1     2 ar  
     2     1     6 ar  
     3     1    21 1   
     4     2     3 ar  
     5     2    37 1   
     6     3     4 ar  
     7     3     7 1   
     8     4     5 ar  
     9     4    40 1   
    10     5     6 ar  
    11     5    24 1   
    12     6    38 1   
    13     7     8 1   
    14     7     9 2   
    15     8    10 1   
    16     8    41 1   
    17    10    11 1   
    18    10    12 1   
    19    10    42 1   
    20    11    14 1   
    21    11    43 1   
    22    11    44 1   
    23    12    13 1   
    24    12    15 1   
    25    12    45 1   
    26    13    46 1   
    27    14    16 ar  
    28    14    20 ar  
    29    15    30 1   
    30    15    47 1   
    31    15    48 1   
    32    16    17 ar  
    33    16    49 1   
    34    17    18 ar  
    35    17    52 1   
    36    18    19 ar  
    37    18    53 1   
    38    19    20 ar  
    39    19    54 1   
    40    20    50 1   
    41    21    22 1   
    42    21    39 1   
    43    22    23 1   
    44    22    55 1   
    45    22    56 1   
    46    23    57 1   
    47    23    58 1   
    48    23    59 1   
    49    24    25 1   
    50    24    28 1   
    51    25    26 1   
    52    25    29 2   
    53    26    27 1   
    54    26    62 1   
    55    26    63 1   
    56    27    28 1   
    57    27    64 1   
    58    27    65 1   
    59    28    60 1   
    60    28    61 1   
    61    30    31 1   
    62    30    51 1   
    63    31    32 1   
    64    31    36 1   
    65    31    66 1   
    66    32    33 1   
    67    32    67 1   
    68    32    68 1   
    69    33    34 1   
    70    33    71 1   
    71    33    72 1   
    72    34    35 1   
    73    34    73 1   
    74    34    74 1   
    75    35    36 1   
    76    35    75 1   
    77    35    76 1   
    78    36    69 1   
    79    36    70 1   
@<TRIPOS>SUBSTRUCTURE
     1 VG7         1 TEMP              0 ****  ****    0 ROOT
