@<TRIPOS>MOLECULE
VG8
   76    81     1     0     0
SMALL
abcg2


@<TRIPOS>ATOM
      1 CBJ         15.8310    -3.3390    27.4250 c6         1 VG8       0.178300
      2 CBL         17.0550    -3.7010    28.2770 c6         1 VG8      -0.075400
      3 CBN         17.1500    -2.7970    29.4960 c6         1 VG8      -0.064400
      4 CBM         17.3460    -1.3460    29.0430 c6         1 VG8      -0.075400
      5 CBK         16.6510    -1.0990    27.6990 c6         1 VG8       0.178300
      6 NBI         15.4700    -1.9380    27.5930 n3         1 VG8      -0.735600
      7 CBH         14.4710    -1.4340    26.6690 c6         1 VG8       0.197500
      8 CBF         14.8220    -1.4880    25.1760 c6         1 VG8      -0.119400
      9 CBD         13.8680    -0.5680    24.4100 c6         1 VG8       0.217300
     10 CBG         13.1010    -2.0940    26.8780 c6         1 VG8      -0.119400
     11 CBE         12.2370    -1.9210    25.6220 c6         1 VG8       0.217300
     12 NBC         12.5000    -0.6870    24.9120 nh         1 VG8      -0.823400
     13 CBB         11.7680     0.4490    25.1940 ca         1 VG8       0.309000
     14 CAZ         10.9670     0.5750    26.3390 ca         1 VG8      -0.134000
     15 CAO         10.1710     1.6830    26.5960 ca         1 VG8      -0.098000
     16 CAY         11.7390     1.5460    24.3270 ca         1 VG8      -0.113300
     17 CAX         12.3770     1.7290    22.9810 c5         1 VG8       0.149300
     18 NAU         11.8860     3.0220    22.5620 n          1 VG8      -0.408800
     19 CAT         12.2890     3.6040    21.3110 c3         1 VG8       0.098300
     20 CAM         11.0760     3.6050    23.4660 c          1 VG8       0.583600
     21 OAI         10.5510     4.7100    23.3740 o          1 VG8      -0.573000
     22 CAN         10.9470     2.6530    24.5870 ca         1 VG8      -0.186600
     23 CAJ         10.1270     2.7560    25.7090 ca         1 VG8       0.334000
     24 NAE          9.3600     3.9120    25.8780 nu         1 VG8      -0.921900
     25 C4           8.1790     4.0430    26.5190 ca         1 VG8       0.439900
     26 N3           7.6280     2.9980    27.1190 nb         1 VG8      -0.315000
     27 C5           7.5170     5.2880    26.5510 ca         1 VG8      -0.120000
     28 CL5          8.1800     6.6880    25.7870 cl         1 VG8      -0.173000
     29 C6           6.3160     5.3450    27.2180 ca         1 VG8       0.185900
     30 N1           5.7680     4.2950    27.8140 nb         1 VG8      -0.268000
     31 C2           6.4620     3.1570    27.7290 ca         1 VG8       0.426900
     32 NAH          5.8820     2.0940    28.3460 nu         1 VG8      -0.921900
     33 CAL          6.3160     0.7730    28.4500 ca         1 VG8       0.287000
     34 CAP          7.1360     0.1390    27.5240 ca         1 VG8      -0.101000
     35 CAV          7.5060    -1.1910    27.6950 ca         1 VG8      -0.126000
     36 CBA          7.0410    -1.9080    28.7820 ca         1 VG8      -0.100000
     37 CAW          6.2000    -1.2980    29.7080 ca         1 VG8      -0.174000
     38 CAQ          5.8400     0.0330    29.5530 ca         1 VG8       0.094100
     39 OAR          5.0360     0.7080    30.3990 os         1 VG8      -0.356100
     40 CAS          4.4510     0.0110    31.4820 c3         1 VG8       0.153900
     41 HBJ1        16.0430    -3.5950    26.3760 h1         1 VG8       0.028200
     42 HBJ2        14.9870    -3.9630    27.7320 h1         1 VG8       0.028200
     43 HBL1        16.9940    -4.7520    28.5670 hc         1 VG8       0.040200
     44 HBL2        17.9700    -3.6020    27.6860 hc         1 VG8       0.040200
     45 HBN1        16.2350    -2.8860    30.0880 hc         1 VG8       0.043700
     46 HBN2        17.9680    -3.1100    30.1470 hc         1 VG8       0.043700
     47 HBM1        16.9550    -0.6640    29.8000 hc         1 VG8       0.040200
     48 HBM2        18.4110    -1.1230    28.9390 hc         1 VG8       0.040200
     49 HBK1        16.3480    -0.0520    27.6250 h1         1 VG8       0.028200
     50 HBK2        17.3570    -1.2670    26.8700 h1         1 VG8       0.028200
     51 HBH         14.3540    -0.3720    26.9190 h1         1 VG8       0.059700
     52 HBF1        15.8430    -1.1500    24.9910 hc         1 VG8       0.052450
     53 HBF2        14.7610    -2.5130    24.7990 hc         1 VG8       0.052450
     54 HBG1        13.2060    -3.1640    27.0700 hc         1 VG8       0.052450
     55 HBG2        12.6230    -1.6660    27.7610 hc         1 VG8       0.052450
     56 HBD1        14.2080     0.4590    24.5620 h1         1 VG8       0.047700
     57 HBD2        13.9250    -0.7750    23.3370 h1         1 VG8       0.047700
     58 HBE1        12.4360    -2.7430    24.9300 h1         1 VG8       0.047700
     59 HBE2        11.1740    -1.9910    25.8560 h1         1 VG8       0.047700
     60 HAZ         10.9590    -0.2140    27.0790 ha         1 VG8       0.119000
     61 HAO          9.5840     1.6910    27.5000 ha         1 VG8       0.150000
     62 HAX1        13.4690     1.7370    23.0090 h1         1 VG8       0.058700
     63 HAX2        12.0750     0.9420    22.2810 h1         1 VG8       0.058700
     64 HAT1        11.8750     4.6040    21.2220 h1         1 VG8       0.043700
     65 HAT2        13.3770     3.6720    21.2510 h1         1 VG8       0.043700
     66 HAT3        11.9350     3.0050    20.4710 h1         1 VG8       0.043700
     67 HAE          9.6270     4.6760    25.2680 hn         1 VG8       0.543000
     68 H6           5.7730     6.2820    27.2750 h4         1 VG8       0.032100
     69 HAH          5.0470     2.3320    28.8590 hn         1 VG8       0.528000
     70 HAP          7.5010     0.6850    26.6690 ha         1 VG8       0.147000
     71 HAV          8.1520    -1.6590    26.9640 ha         1 VG8       0.114000
     72 HBA          7.3220    -2.9440    28.9210 ha         1 VG8       0.112000
     73 HAW          5.8390    -1.8720    30.5510 ha         1 VG8       0.117000
     74 HAS1         3.8300    -0.8200    31.1390 h1         1 VG8       0.041700
     75 HAS2         5.2050    -0.3710    32.1740 h1         1 VG8       0.041700
     76 HAS3         3.8240     0.7280    32.0070 h1         1 VG8       0.041700
@<TRIPOS>BOND
     1     1     2 1   
     2     1     6 1   
     3     1    41 1   
     4     1    42 1   
     5     2     3 1   
     6     2    43 1   
     7     2    44 1   
     8     3     4 1   
     9     3    45 1   
    10     3    46 1   
    11     4     5 1   
    12     4    47 1   
    13     4    48 1   
    14     5     6 1   
    15     5    49 1   
    16     5    50 1   
    17     6     7 1   
    18     7     8 1   
    19     7    10 1   
    20     7    51 1   
    21     8     9 1   
    22     8    52 1   
    23     8    53 1   
    24     9    12 1   
    25     9    56 1   
    26     9    57 1   
    27    10    11 1   
    28    10    54 1   
    29    10    55 1   
    30    11    12 1   
    31    11    58 1   
    32    11    59 1   
    33    12    13 1   
    34    13    14 ar  
    35    13    16 ar  
    36    14    15 ar  
    37    14    60 1   
    38    15    23 ar  
    39    15    61 1   
    40    16    17 1   
    41    16    22 ar  
    42    17    18 1   
    43    17    62 1   
    44    17    63 1   
    45    18    19 1   
    46    18    20 1   
    47    19    64 1   
    48    19    65 1   
    49    19    66 1   
    50    20    21 2   
    51    20    22 1   
    52    22    23 ar  
    53    23    24 1   
    54    24    25 1   
    55    24    67 1   
    56    25    26 ar  
    57    25    27 ar  
    58    26    31 ar  
    59    27    28 1   
    60    27    29 ar  
    61    29    30 ar  
    62    29    68 1   
    63    30    31 ar  
    64    31    32 1   
    65    32    33 1   
    66    32    69 1   
    67    33    34 ar  
    68    33    38 ar  
    69    34    35 ar  
    70    34    70 1   
    71    35    36 ar  
    72    35    71 1   
    73    36    37 ar  
    74    36    72 1   
    75    37    38 ar  
    76    37    73 1   
    77    38    39 1   
    78    39    40 1   
    79    40    74 1   
    80    40    75 1   
    81    40    76 1   
@<TRIPOS>SUBSTRUCTURE
     1 VG8         1 TEMP              0 ****  ****    0 ROOT
