@<TRIPOS>MOLECULE
VG8
   76    81     1     0     0
SMALL
No Charge or Current Charge


@<TRIPOS>ATOM
      1 CBJ         16.1490    -3.4870    27.1000 c6         1 VG8       0.178300
      2 CBL         17.2550    -4.1840    27.9460 c6         1 VG8      -0.075400
      3 CBN         17.2970    -3.6600    29.3980 c6         1 VG8      -0.064400
      4 CBM         17.5060    -2.1220    29.4150 c6         1 VG8      -0.075400
      5 CBK         16.7570    -1.3920    28.2630 c6         1 VG8       0.178300
      6 NBI         15.6420    -2.2160    27.7190 n3         1 VG8      -0.735600
      7 CBH         14.7030    -1.4260    26.8560 c6         1 VG8       0.197500
      8 CBF         15.3050    -0.9660    25.5000 c6         1 VG8      -0.119400
      9 CBD         14.3640     0.0650    24.8290 c6         1 VG8       0.217300
     10 CBG         13.3400    -2.1460    26.6260 c6         1 VG8      -0.119400
     11 CBE         12.6350    -1.7120    25.3130 c6         1 VG8       0.217300
     12 NBC         12.9200    -0.2930    24.9650 nh         1 VG8      -0.823400
     13 CBB         11.9310     0.7090    25.1020 ca         1 VG8       0.309000
     14 CAZ         11.0720     0.7290    26.2220 ca         1 VG8      -0.134000
     15 CAO         10.0770     1.7240    26.3650 ca         1 VG8      -0.098000
     16 CAY         11.7690     1.7250    24.1400 ca         1 VG8      -0.113300
     17 CAX         12.5500     1.9220    22.8450 c5         1 VG8       0.149300
     18 NAU         11.8580     3.1300    22.3060 n          1 VG8      -0.408800
     19 CAT         12.1960     3.8100    21.0450 c3         1 VG8       0.098300
     20 CAM         10.8350     3.5990    23.1360 c          1 VG8       0.583600
     21 OAI         10.1310     4.5820    22.9390 o          1 VG8      -0.573000
     22 CAN         10.7810     2.6910    24.2890 ca         1 VG8      -0.186600
     23 CAJ          9.9040     2.7190    25.3780 ca         1 VG8       0.334000
     24 NAE          8.9330     3.7240    25.4420 nu         1 VG8      -0.921900
     25 C4           7.7330     3.9070    26.1240 ca         1 VG8       0.439900
     26 N3           7.2770     2.9000    26.8800 nb         1 VG8      -0.315000
     27 C5           7.0070     5.1040    25.9820 ca         1 VG8      -0.120000
     28 Cl5          7.5760     6.4380    24.9720 cl         1 VG8      -0.173000
     29 C6           5.7950     5.2050    26.6850 ca         1 VG8       0.185900
     30 N1           5.3410     4.1950    27.4540 nb         1 VG8      -0.268000
     31 C2           6.1040     3.0910    27.5000 ca         1 VG8       0.426900
     32 NAH          5.6220     2.0860    28.3210 nu         1 VG8      -0.921900
     33 CAL          6.0300     0.7760    28.6450 ca         1 VG8       0.287000
     34 CAP          6.8040    -0.0090    27.7640 ca         1 VG8      -0.101000
     35 CAV          7.1910    -1.3130    28.1180 ca         1 VG8      -0.126000
     36 CBA          6.7990    -1.8540    29.3510 ca         1 VG8      -0.100000
     37 CAW          6.0090    -1.0970    30.2320 ca         1 VG8      -0.174000
     38 CAQ          5.6150     0.2170    29.8850 ca         1 VG8       0.094100
     39 OAR          4.8260     0.9880    30.7300 os         1 VG8      -0.356100
     40 CAS          4.3640     0.5080    32.0060 c3         1 VG8       0.153900
     41 HBJ1        16.5600    -3.3050    26.0970 h1         1 VG8       0.028200
     42 HBJ2        15.3230    -4.2000    26.9790 h1         1 VG8       0.028200
     43 HBL1        17.1020    -5.2710    27.9370 hc         1 VG8       0.040200
     44 HBL2        18.2320    -4.0080    27.4740 hc         1 VG8       0.040200
     45 HBN1        16.3530    -3.9100    29.9020 hc         1 VG8       0.043700
     46 HBN2        18.0950    -4.1580    29.9660 hc         1 VG8       0.043700
     47 HBM1        17.1680    -1.7260    30.3820 hc         1 VG8       0.040200
     48 HBM2        18.5770    -1.8880    29.3470 hc         1 VG8       0.040200
     49 HBK1        16.3870    -0.4260    28.6390 h1         1 VG8       0.028200
     50 HBK2        17.4800    -1.1680    27.4640 h1         1 VG8       0.028200
     51 HBH         14.4550    -0.5000    27.3980 h1         1 VG8       0.059700
     52 HBF1        16.2950    -0.5120    25.6330 hc         1 VG8       0.052450
     53 HBF2        15.4400    -1.8250    24.8300 hc         1 VG8       0.052450
     54 HBG1        13.4460    -3.2360    26.6080 hc         1 VG8       0.052450
     55 HBG2        12.6860    -1.9270    27.4790 hc         1 VG8       0.052450
     56 HBD1        14.5370     1.0430    25.3020 h1         1 VG8       0.047700
     57 HBD2        14.6390     0.1640    23.7690 h1         1 VG8       0.047700
     58 HBE1        12.9880    -2.3550    24.4920 h1         1 VG8       0.047700
     59 HBE2        11.5530    -1.8930    25.3960 h1         1 VG8       0.047700
     60 HAZ         11.1810    -0.0210    26.9990 ha         1 VG8       0.119000
     61 HAO          9.4600     1.7140    27.2560 ha         1 VG8       0.150000
     62 HAX1        13.6120     2.1210    23.0340 h1         1 VG8       0.058700
     63 HAX2        12.4510     1.0570    22.1750 h1         1 VG8       0.058700
     64 HAT1        12.5090     4.8410    21.2520 h1         1 VG8       0.043700
     65 HAT2        13.0150     3.2800    20.5420 h1         1 VG8       0.043700
     66 HAT3        11.3190     3.8230    20.3850 h1         1 VG8       0.043700
     67 HAE          9.0740     4.4420    24.7250 hn         1 VG8       0.543000
     68 H6           5.1790     6.1010    26.6330 h4         1 VG8       0.032100
     69 HAH          4.8850     2.4190    28.9430 hn         1 VG8       0.528000
     70 HAP          7.0950     0.3740    26.7930 ha         1 VG8       0.147000
     71 HAV          7.7910    -1.9070    27.4300 ha         1 VG8       0.114000
     72 HBA          7.1000    -2.8640    29.6210 ha         1 VG8       0.112000
     73 HAW          5.7130    -1.5470    31.1750 ha         1 VG8       0.117000
     74 HAS1         3.7400    -0.3870    31.8840 h1         1 VG8       0.041700
     75 HAS2         5.2090     0.2640    32.6610 h1         1 VG8       0.041700
     76 HAS3         3.7600     1.2770    32.5040 h1         1 VG8       0.041700
@<TRIPOS>BOND
     1     1     2 1   
     2     1     6 1   
     3     1    41 1   
     4     1    42 1   
     5     2     3 1   
     6     2    43 1   
     7     2    44 1   
     8     3     4 1   
     9     3    45 1   
    10     3    46 1   
    11     4     5 1   
    12     4    47 1   
    13     4    48 1   
    14     5     6 1   
    15     5    49 1   
    16     5    50 1   
    17     6     7 1   
    18     7     8 1   
    19     7    10 1   
    20     7    51 1   
    21     8     9 1   
    22     8    52 1   
    23     8    53 1   
    24     9    12 1   
    25     9    56 1   
    26     9    57 1   
    27    10    11 1   
    28    10    54 1   
    29    10    55 1   
    30    11    12 1   
    31    11    58 1   
    32    11    59 1   
    33    12    13 1   
    34    13    14 ar  
    35    13    16 ar  
    36    14    15 ar  
    37    14    60 1   
    38    15    23 ar  
    39    15    61 1   
    40    16    17 1   
    41    16    22 ar  
    42    17    18 1   
    43    17    62 1   
    44    17    63 1   
    45    18    19 1   
    46    18    20 1   
    47    19    64 1   
    48    19    65 1   
    49    19    66 1   
    50    20    21 2   
    51    20    22 1   
    52    22    23 ar  
    53    23    24 1   
    54    24    25 1   
    55    24    67 1   
    56    25    26 ar  
    57    25    27 ar  
    58    26    31 ar  
    59    27    28 1   
    60    27    29 ar  
    61    29    30 ar  
    62    29    68 1   
    63    30    31 ar  
    64    31    32 1   
    65    32    33 1   
    66    32    69 1   
    67    33    34 ar  
    68    33    38 ar  
    69    34    35 ar  
    70    34    70 1   
    71    35    36 ar  
    72    35    71 1   
    73    36    37 ar  
    74    36    72 1   
    75    37    38 ar  
    76    37    73 1   
    77    38    39 1   
    78    39    40 1   
    79    40    74 1   
    80    40    75 1   
    81    40    76 1   
@<TRIPOS>SUBSTRUCTURE
     1 VG8         1 TEMP              0 ****  ****    0 ROOT
