@<TRIPOS>MOLECULE
VG9
   51    53     1     0     0
SMALL
No Charge or Current Charge


@<TRIPOS>ATOM
      1 N2           1.4990    28.9710    -7.4380 nv         1 VG9      -1.062900
      2 C2           1.6420    29.1680    -6.1100 ca         1 VG9       0.436900
      3 N3           0.8840    28.4100    -5.3300 nb         1 VG9      -0.353000
      4 C4           1.0370    28.5960    -4.0200 ca         1 VG9       0.443900
      5 N4           0.1630    27.8260    -3.3280 nv         1 VG9      -1.068900
      6 N1           2.5200    30.0970    -5.7370 nb         1 VG9      -0.272000
      7 C8A          2.6910    30.3120    -4.4170 ca         1 VG9       0.144000
      8 N8           3.5540    31.2640    -4.0230 nb         1 VG9      -0.141000
      9 C7           3.7140    31.5220    -2.7200 ca         1 VG9       0.149900
     10 C6           3.0430    30.8310    -1.6990 ca         1 VG9      -0.219300
     11 C5           2.1800    29.7620    -2.0660 ca         1 VG9       0.029700
     12 C5A          1.5640    28.8760    -0.9720 c3         1 VG9      -0.070800
     13 C4A          1.9570    29.5350    -3.4670 ca         1 VG9      -0.272000
     14 C9           3.2670    31.2820    -0.2480 c3         1 VG9       0.295100
     15 N10          3.3020    32.7470    -0.1330 nu         1 VG9      -0.989200
     16 C11          2.3540    33.6600    -0.6040 ca         1 VG9       0.357000
     17 C12          2.7250    35.0160    -0.7810 ca         1 VG9      -0.024900
     18 O2           4.0230    35.4050    -0.4670 os         1 VG9      -0.365100
     19 C21          4.4830    36.7580    -0.6290 c3         1 VG9       0.153600
     20 C22          5.9560    36.8030    -0.1910 c3         1 VG9      -0.094100
     21 C13          1.7700    35.9340    -1.2750 ca         1 VG9      -0.048000
     22 C14          0.4750    35.4920    -1.5970 ca         1 VG9      -0.191000
     23 C15          0.1160    34.1480    -1.4340 ca         1 VG9       0.188100
     24 C16          1.0530    33.2360    -0.9150 ca         1 VG9      -0.273000
     25 O5          -1.1660    33.7760    -1.7910 os         1 VG9      -0.351100
     26 C51         -1.5700    32.4020    -1.9660 c3         1 VG9       0.165600
     27 C52         -0.9090    31.8450    -3.2450 c3         1 VG9      -0.130100
     28 H21N         2.2150    29.3450    -8.0550 hn         1 VG9       0.499000
     29 H22N         1.0260    28.1270    -7.7490 hn         1 VG9       0.499000
     30 H41N        -0.3210    27.0840    -3.8260 hn         1 VG9       0.492000
     31 H42N         0.2640    27.7310    -2.3270 hn         1 VG9       0.492000
     32 H7           4.4120    32.3260    -2.4910 h4         1 VG9       0.035100
     33 H91C         2.4570    30.9280     0.4000 h1         1 VG9       0.045700
     34 H92C         4.2050    30.8490     0.1270 h1         1 VG9       0.045700
     35 H5A1         0.5100    29.1270    -0.8010 hc         1 VG9       0.050367
     36 H5A2         1.6470    27.8140    -1.2260 hc         1 VG9       0.050367
     37 H5A3         2.0810    28.9460    -0.0110 hc         1 VG9       0.050367
     38 H10          4.2110    33.1750     0.0490 hn         1 VG9       0.505000
     39 H16          0.7850    32.1990    -0.7610 ha         1 VG9       0.123000
     40 H13          2.0140    36.9820    -1.4220 ha         1 VG9       0.120000
     41 H211         4.4050    37.0730    -1.6780 h1         1 VG9       0.026700
     42 H212         3.8970    37.4470    -0.0070 h1         1 VG9       0.026700
     43 H221         6.5630    36.1310    -0.8080 hc         1 VG9       0.042367
     44 H222         6.3520    37.8190    -0.2980 hc         1 VG9       0.042367
     45 H223         6.0560    36.5030     0.8590 hc         1 VG9       0.042367
     46 H14         -0.2540    36.1980    -1.9880 ha         1 VG9       0.129000
     47 H511        -1.3110    31.7880    -1.0940 h1         1 VG9       0.047200
     48 H512        -2.6590    32.3510    -2.0890 h1         1 VG9       0.047200
     49 H521        -1.1980    32.4410    -4.1180 hc         1 VG9       0.050367
     50 H522         0.1840    31.8520    -3.1660 hc         1 VG9       0.050367
     51 H523        -1.2290    30.8110    -3.4150 hc         1 VG9       0.050367
@<TRIPOS>BOND
     1     1     2 1   
     2     1    28 1   
     3     1    29 1   
     4     2     3 ar  
     5     2     6 ar  
     6     3     4 ar  
     7     4     5 1   
     8     4    13 ar  
     9     5    30 1   
    10     5    31 1   
    11     6     7 ar  
    12     7     8 ar  
    13     7    13 ar  
    14     8     9 ar  
    15     9    10 ar  
    16     9    32 1   
    17    10    11 ar  
    18    10    14 1   
    19    11    12 1   
    20    11    13 ar  
    21    12    35 1   
    22    12    36 1   
    23    12    37 1   
    24    14    15 1   
    25    14    33 1   
    26    14    34 1   
    27    15    16 1   
    28    15    38 1   
    29    16    17 ar  
    30    16    24 ar  
    31    17    18 1   
    32    17    21 ar  
    33    18    19 1   
    34    19    20 1   
    35    19    41 1   
    36    19    42 1   
    37    20    43 1   
    38    20    44 1   
    39    20    45 1   
    40    21    22 ar  
    41    21    40 1   
    42    22    23 ar  
    43    22    46 1   
    44    23    24 ar  
    45    23    25 1   
    46    24    39 1   
    47    25    26 1   
    48    26    27 1   
    49    26    47 1   
    50    26    48 1   
    51    27    49 1   
    52    27    50 1   
    53    27    51 1   
@<TRIPOS>SUBSTRUCTURE
     1 VG9         1 TEMP              0 ****  ****    0 ROOT
