@<TRIPOS>MOLECULE
VG9
   51    53     1     0     0
SMALL
abcg2


@<TRIPOS>ATOM
      1 N2           0.7860    27.9360    -6.9960 nv         1 VG9      -1.062900
      2 C2           1.2420    28.3250    -5.7900 ca         1 VG9       0.436900
      3 N3           0.9530    27.5040    -4.7660 nb         1 VG9      -0.353000
      4 C4           1.3000    27.8730    -3.5510 ca         1 VG9       0.443900
      5 N4           1.0560    26.9770    -2.5830 nv         1 VG9      -1.068900
      6 N1           1.9230    29.4510    -5.7180 nb         1 VG9      -0.272000
      7 C8A          2.2520    29.8710    -4.4850 ca         1 VG9       0.144000
      8 N8           2.9390    31.0260    -4.4350 nb         1 VG9      -0.141000
      9 C7           3.2180    31.5270    -3.2570 ca         1 VG9       0.149900
     10 C6           2.8290    30.9800    -2.0290 ca         1 VG9      -0.219300
     11 C5           2.1520    29.7670    -2.0440 ca         1 VG9       0.029700
     12 C5A          1.6810    29.1560    -0.7550 c3         1 VG9      -0.070800
     13 C4A          1.9020    29.1660    -3.3030 ca         1 VG9      -0.272000
     14 C9           3.1560    31.7310    -0.7480 c3         1 VG9       0.295100
     15 N10          3.4730    33.1160    -0.9400 nu         1 VG9      -0.989200
     16 C11          2.5380    34.0660    -1.2380 ca         1 VG9       0.357000
     17 C12          2.8960    35.4260    -1.2480 ca         1 VG9      -0.024900
     18 O2           4.1830    35.7700    -0.9300 os         1 VG9      -0.365100
     19 C21          4.3690    36.1340     0.4390 c3         1 VG9       0.153600
     20 C22          5.8400    36.3740     0.6800 c3         1 VG9      -0.094100
     21 C13          1.9560    36.3840    -1.5760 ca         1 VG9      -0.048000
     22 C14          0.6560    36.0390    -1.9200 ca         1 VG9      -0.191000
     23 C15          0.2910    34.6950    -1.9140 ca         1 VG9       0.188100
     24 C16          1.2220    33.7200    -1.5670 ca         1 VG9      -0.273000
     25 O5          -0.9880    34.4170    -2.2510 os         1 VG9      -0.351100
     26 C51         -1.3730    33.0800    -2.5460 c3         1 VG9       0.165600
     27 C52         -0.7950    32.5620    -3.8490 c3         1 VG9      -0.130100
     28 H21N         1.1000    28.4220    -7.8170 hn         1 VG9       0.499000
     29 H22N         0.4290    27.0050    -7.1110 hn         1 VG9       0.499000
     30 H41N         0.7370    26.0680    -2.8780 hn         1 VG9       0.492000
     31 H42N         1.5240    27.0070    -1.6970 hn         1 VG9       0.492000
     32 H7           3.7800    32.4560    -3.2570 h4         1 VG9       0.035100
     33 H91C         2.3250    31.6420    -0.0420 h1         1 VG9       0.045700
     34 H92C         4.0120    31.2660    -0.2570 h1         1 VG9       0.045700
     35 H5A1         0.6790    28.7390    -0.8430 hc         1 VG9       0.050367
     36 H5A2         2.3530    28.3640    -0.4160 hc         1 VG9       0.050367
     37 H5A3         1.6460    29.8820     0.0510 hc         1 VG9       0.050367
     38 H10          4.4010    33.4250    -0.7150 hn         1 VG9       0.505000
     39 H16          0.9400    32.6780    -1.5670 ha         1 VG9       0.123000
     40 H13          2.2500    37.4270    -1.5790 ha         1 VG9       0.120000
     41 H211         3.7920    37.0380     0.6660 h1         1 VG9       0.026700
     42 H212         3.9950    35.3390     1.0940 h1         1 VG9       0.026700
     43 H221         6.2190    37.1800     0.0520 hc         1 VG9       0.042367
     44 H222         5.9980    36.6570     1.7200 hc         1 VG9       0.042367
     45 H223         6.4280    35.4770     0.4840 hc         1 VG9       0.042367
     46 H14         -0.0650    36.8000    -2.1900 ha         1 VG9       0.129000
     47 H511        -1.1300    32.4080    -1.7160 h1         1 VG9       0.047200
     48 H512        -2.4600    33.1140    -2.6090 h1         1 VG9       0.047200
     49 H521        -1.0910    33.1940    -4.6870 hc         1 VG9       0.050367
     50 H522         0.2930    32.5050    -3.8290 hc         1 VG9       0.050367
     51 H523        -1.1720    31.5570    -4.0380 hc         1 VG9       0.050367
@<TRIPOS>BOND
     1     1     2 1   
     2     1    28 1   
     3     1    29 1   
     4     2     3 ar  
     5     2     6 ar  
     6     3     4 ar  
     7     4     5 1   
     8     4    13 ar  
     9     5    30 1   
    10     5    31 1   
    11     6     7 ar  
    12     7     8 ar  
    13     7    13 ar  
    14     8     9 ar  
    15     9    10 ar  
    16     9    32 1   
    17    10    11 ar  
    18    10    14 1   
    19    11    12 1   
    20    11    13 ar  
    21    12    35 1   
    22    12    36 1   
    23    12    37 1   
    24    14    15 1   
    25    14    33 1   
    26    14    34 1   
    27    15    16 1   
    28    15    38 1   
    29    16    17 ar  
    30    16    24 ar  
    31    17    18 1   
    32    17    21 ar  
    33    18    19 1   
    34    19    20 1   
    35    19    41 1   
    36    19    42 1   
    37    20    43 1   
    38    20    44 1   
    39    20    45 1   
    40    21    22 ar  
    41    21    40 1   
    42    22    23 ar  
    43    22    46 1   
    44    23    24 ar  
    45    23    25 1   
    46    24    39 1   
    47    25    26 1   
    48    26    27 1   
    49    26    47 1   
    50    26    48 1   
    51    27    49 1   
    52    27    50 1   
    53    27    51 1   
@<TRIPOS>SUBSTRUCTURE
     1 VG9         1 TEMP              0 ****  ****    0 ROOT
