@<TRIPOS>MOLECULE
VGA
   46    50     1     0     0
SMALL
bcc


@<TRIPOS>ATOM
      1 N1          -1.2380    -0.0470    -1.3780 ne         1 VGA      -0.706100
      2 C2          -1.5890     0.4780    -0.2540 c2         1 VGA       0.688200
      3 C3          -0.8930     0.1860     1.0640 c3         1 VGA       0.117500
      4 C4           1.2760     0.3840     0.1720 ce         1 VGA       0.554500
      5 N5           0.4070     0.8150     1.0050 n2         1 VGA      -0.596900
      6 C6           1.0820    -0.6940    -0.8070 ca         1 VGA      -0.236900
      7 C7          -0.1400    -0.8630    -1.4950 ca         1 VGA       0.225400
      8 C8          -0.2240    -1.8920    -2.4490 ca         1 VGA      -0.136000
      9 C9           0.8270    -2.7530    -2.6760 ca         1 VGA      -0.100000
     10 C10          2.0250    -2.5990    -1.9790 ca         1 VGA      -0.159000
     11 C11          2.1470    -1.5650    -1.0750 ca         1 VGA      -0.081000
     12 C12          2.6000     1.0590     0.2120 ca         1 VGA      -0.141900
     13 N13         -2.5980     1.3420    -0.2240 nn         1 VGA      -0.760600
     14 C14         -3.3450     1.9310    -1.3170 cy         1 VGA       0.213300
     15 C15         -4.1440     2.7400    -0.2800 cy         1 VGA       0.108100
     16 C16         -3.2370     2.1280     0.8200 cy         1 VGA       0.213300
     17 C17          3.3000     1.3370    -0.9620 ca         1 VGA      -0.094500
     18 C18          4.5090     2.0180    -0.9150 ca         1 VGA      -0.139500
     19 C19          5.0390     2.4130     0.3050 ca         1 VGA      -0.116000
     20 C20          4.3510     2.1320     1.4800 ca         1 VGA      -0.139500
     21 C21          3.1350     1.4680     1.4330 ca         1 VGA      -0.094500
     22 C22         -0.8680    -1.2820     1.4000 cc         1 VGA      -0.086400
     23 S23         -2.1690    -2.3160     0.9510 ss         1 VGA      -0.077800
     24 C24         -1.4830    -3.6510     1.7800 cc         1 VGA      -0.113100
     25 C25         -0.3060    -3.3120     2.3730 cd         1 VGA      -0.151000
     26 C26          0.0430    -1.9500     2.1600 cd         1 VGA      -0.130000
     27 O27         -4.0540     4.1140    -0.4850 oh         1 VGA      -0.572800
     28 H3          -1.4410     0.6860     1.8680 h1         1 VGA       0.084700
     29 H11          3.0800    -1.4340    -0.5420 ha         1 VGA       0.134000
     30 H8          -1.1520    -2.0000    -2.9970 ha         1 VGA       0.143000
     31 H9           0.7200    -3.5490    -3.4020 ha         1 VGA       0.129000
     32 H10          2.8530    -3.2730    -2.1510 ha         1 VGA       0.132000
     33 H17          2.8940     1.0360    -1.9190 ha         1 VGA       0.142500
     34 H21          2.6000     1.2520     2.3480 ha         1 VGA       0.142500
     35 H141        -2.7290     2.5390    -1.9850 h1         1 VGA       0.067950
     36 H142        -3.9150     1.2140    -1.9100 h1         1 VGA       0.067950
     37 H161        -3.7470     1.5390     1.5830 h1         1 VGA       0.067950
     38 H162        -2.5720     2.8510     1.3000 h1         1 VGA       0.067950
     39 H15         -5.1800     2.4030    -0.1880 h1         1 VGA       0.050700
     40 H27         -4.5800     4.5590     0.1870 ho         1 VGA       0.411000
     41 H18          5.0360     2.2370    -1.8350 ha         1 VGA       0.131500
     42 H19          5.9860     2.9360     0.3430 ha         1 VGA       0.130000
     43 H20          4.7650     2.4290     2.4350 ha         1 VGA       0.131500
     44 H26          0.9410    -1.4930     2.5510 ha         1 VGA       0.157000
     45 H24         -1.9770    -4.6100     1.7720 h4         1 VGA       0.168000
     46 H25          0.2950    -4.0070     2.9420 ha         1 VGA       0.152000
@<TRIPOS>BOND
     1     1     2 2   
     2     1     7 1   
     3     2     3 1   
     4     2    13 1   
     5     3     5 1   
     6     3    22 1   
     7     3    28 1   
     8     4     5 2   
     9     4     6 1   
    10     4    12 1   
    11     6     7 ar  
    12     6    11 ar  
    13     7     8 ar  
    14     8     9 ar  
    15     8    30 1   
    16     9    10 ar  
    17     9    31 1   
    18    10    11 ar  
    19    10    32 1   
    20    11    29 1   
    21    12    17 ar  
    22    12    21 ar  
    23    13    14 1   
    24    13    16 1   
    25    14    15 1   
    26    14    35 1   
    27    14    36 1   
    28    15    16 1   
    29    15    27 1   
    30    15    39 1   
    31    16    37 1   
    32    16    38 1   
    33    17    18 ar  
    34    17    33 1   
    35    18    19 ar  
    36    18    41 1   
    37    19    20 ar  
    38    19    42 1   
    39    20    21 ar  
    40    20    43 1   
    41    21    34 1   
    42    22    23 1   
    43    22    26 2   
    44    23    24 1   
    45    24    25 2   
    46    24    45 1   
    47    25    26 1   
    48    25    46 1   
    49    26    44 1   
    50    27    40 1   
@<TRIPOS>SUBSTRUCTURE
     1 VGA         1 TEMP              0 ****  ****    0 ROOT
