@<TRIPOS>MOLECULE
VGA
   46    50     1     0     0
SMALL
No Charge or Current Charge


@<TRIPOS>ATOM
      1 N1          -1.3220    -0.1360    -1.2670 ne         1 VGA      -0.706100
      2 C2          -1.7380     0.2900    -0.1060 c2         1 VGA       0.688200
      3 C3          -1.0450    -0.1450     1.2220 c3         1 VGA       0.117500
      4 C4           1.1650     0.3180     0.3050 ce         1 VGA       0.554500
      5 N5           0.3220     0.4250     1.2900 n2         1 VGA      -0.596900
      6 C6           1.0220    -0.7430    -0.7400 ca         1 VGA      -0.236900
      7 C7          -0.1860    -0.9460    -1.4470 ca         1 VGA       0.225400
      8 C8          -0.2640    -1.9660    -2.4120 ca         1 VGA      -0.118000
      9 C9           0.8330    -2.8050    -2.6630 ca         1 VGA      -0.082000
     10 C10          2.0240    -2.6220    -1.9470 ca         1 VGA      -0.141000
     11 C11          2.1170    -1.5990    -0.9910 ca         1 VGA      -0.063000
     12 C12          2.3940     1.1840     0.2840 ca         1 VGA      -0.141900
     13 N13         -2.9070     1.0580     0.0080 nn         1 VGA      -0.760600
     14 C14         -3.2160     1.8180    -1.2560 cy         1 VGA       0.213300
     15 C15         -3.6380     2.9830    -0.2920 cy         1 VGA       0.131300
     16 C16         -2.5960     2.3490     0.7020 cy         1 VGA       0.213300
     17 C17          3.0630     1.4510    -0.9340 ca         1 VGA      -0.076500
     18 C18          4.1890     2.2910    -0.9650 ca         1 VGA      -0.121500
     19 C19          4.6540     2.8910     0.2150 ca         1 VGA      -0.098000
     20 C20          3.9860     2.6560     1.4270 ca         1 VGA      -0.121500
     21 C21          2.8590     1.8160     1.4610 ca         1 VGA      -0.076500
     22 C22         -1.0170    -1.6420     1.4820 cc         1 VGA      -0.231300
     23 S23         -2.3130    -2.6880     0.8940 ss         1 VGA       0.212000
     24 C24         -1.5380    -4.1070     1.5890 cc         1 VGA      -0.240000
     25 C25         -0.3790    -3.7640     2.2370 cd         1 VGA      -0.133000
     26 C26         -0.0880    -2.3760     2.1820 cd         1 VGA      -0.112000
     27 O27         -3.3880     4.3210    -0.7400 oh         1 VGA      -0.635000
     28 H3          -1.6330     0.2780     2.0460 h1         1 VGA       0.084700
     29 H11          3.0460    -1.4750    -0.4370 ha         1 VGA       0.116000
     30 H8          -1.1870    -2.1100    -2.9680 ha         1 VGA       0.125000
     31 H9           0.7570    -3.5940    -3.4080 ha         1 VGA       0.111000
     32 H10          2.8750    -3.2730    -2.1320 ha         1 VGA       0.114000
     33 H17          2.7090     1.0130    -1.8650 ha         1 VGA       0.124500
     34 H21          2.3560     1.6510     2.4120 ha         1 VGA       0.124500
     35 H141        -2.3620     2.0960    -1.8880 h1         1 VGA       0.067950
     36 H142        -4.0300     1.4200    -1.8740 h1         1 VGA       0.067950
     37 H161        -2.8790     2.4130     1.7590 h1         1 VGA       0.067950
     38 H162        -1.5770     2.7330     0.5590 h1         1 VGA       0.067950
     39 H15         -4.6740     2.8890     0.0560 h1         1 VGA       0.050700
     40 H27         -3.6770     4.9340    -0.0270 ho         1 VGA       0.450000
     41 H18          4.6970     2.4820    -1.9070 ha         1 VGA       0.113500
     42 H19          5.5250     3.5420     0.1900 ha         1 VGA       0.112000
     43 H20          4.3400     3.1270     2.3420 ha         1 VGA       0.113500
     44 H26          0.7910    -1.9380     2.6470 ha         1 VGA       0.139000
     45 H24         -1.9970    -5.0800     1.4720 h4         1 VGA       0.150000
     46 H25          0.2550    -4.4860     2.7440 ha         1 VGA       0.134000
@<TRIPOS>BOND
     1     1     2 2   
     2     1     7 1   
     3     2     3 1   
     4     2    13 1   
     5     3     5 1   
     6     3    22 1   
     7     3    28 1   
     8     4     5 2   
     9     4     6 1   
    10     4    12 1   
    11     6     7 ar  
    12     6    11 ar  
    13     7     8 ar  
    14     8     9 ar  
    15     8    30 1   
    16     9    10 ar  
    17     9    31 1   
    18    10    11 ar  
    19    10    32 1   
    20    11    29 1   
    21    12    17 ar  
    22    12    21 ar  
    23    13    14 1   
    24    13    16 1   
    25    14    15 1   
    26    14    35 1   
    27    14    36 1   
    28    15    16 1   
    29    15    27 1   
    30    15    39 1   
    31    16    37 1   
    32    16    38 1   
    33    17    18 ar  
    34    17    33 1   
    35    18    19 ar  
    36    18    41 1   
    37    19    20 ar  
    38    19    42 1   
    39    20    21 ar  
    40    20    43 1   
    41    21    34 1   
    42    22    23 1   
    43    22    26 2   
    44    23    24 1   
    45    24    25 2   
    46    24    45 1   
    47    25    26 1   
    48    25    46 1   
    49    26    44 1   
    50    27    40 1   
@<TRIPOS>SUBSTRUCTURE
     1 VGA         1 TEMP              0 ****  ****    0 ROOT
