@<TRIPOS>MOLECULE
VGB
   52    54     1     0     0
SMALL
bcc


@<TRIPOS>ATOM
      1 CBA         -1.3550     5.2540     0.3990 c3         1 VGB      -0.083100
      2 CAN         -2.4420     4.1930     0.4150 c3         1 VGB      -0.149400
      3 CAL         -2.0050     2.8860    -0.2000 c          1 VGB       0.675100
      4 OAM         -1.1210     2.8050    -1.0430 o          1 VGB      -0.619100
      5 NAK         -2.6700     1.7960     0.2300 ns         1 VGB      -0.577900
      6 CAC         -2.5370     0.4980    -0.3860 c6         1 VGB       0.176000
      7 CAB         -3.7340    -0.3750    -0.0300 c6         1 VGB       0.135100
      8 OAG         -4.8320     0.1430    -0.7160 oh         1 VGB      -0.571800
      9 CAA         -3.4600    -1.8320    -0.4060 c6         1 VGB       0.098100
     10 OAH         -4.6320    -2.5600    -0.1480 oh         1 VGB      -0.578800
     11 CAF         -2.3200    -2.4080     0.4460 c6         1 VGB       0.019000
     12 CAI         -1.9210    -3.7920    -0.0360 c3         1 VGB       0.130400
     13 OAJ         -1.1390    -4.4180     0.9520 oh         1 VGB      -0.601800
     14 NAE         -1.1860    -1.4750     0.4000 na         1 VGB      -0.009100
     15 CAQ          0.1300    -1.7470     0.7140 cc         1 VGB      -0.122300
     16 CAD         -1.2830    -0.2030     0.0330 cc         1 VGB      -0.022900
     17 NAO         -0.0710     0.3270     0.0920 na         1 VGB      -0.108100
     18 CAP          0.8380    -0.6080     0.5190 cd         1 VGB      -0.061600
     19 CAR          2.2870    -0.3230     0.6740 c3         1 VGB      -0.028100
     20 CAS          2.9900    -0.0750    -0.6700 c3         1 VGB      -0.022100
     21 CAT          4.4530     0.2040    -0.4710 ca         1 VGB      -0.108300
     22 CAU          5.3800    -0.8360    -0.4630 ca         1 VGB      -0.120500
     23 CAV          6.7280    -0.5840    -0.2390 ca         1 VGB      -0.119000
     24 CAW          7.1670     0.7150    -0.0180 ca         1 VGB      -0.109000
     25 CAX          6.2510     1.7590    -0.0230 ca         1 VGB      -0.119000
     26 CAY          4.9050     1.5030    -0.2470 ca         1 VGB      -0.120500
     27 HBA         -1.0390     5.4900    -0.6150 hc         1 VGB       0.053033
     28 HBAA        -1.7240     6.1720     0.8550 hc         1 VGB       0.053033
     29 HBAB        -0.4770     4.9350     0.9610 hc         1 VGB       0.053033
     30 HAN         -2.7980     4.0220     1.4330 hc         1 VGB       0.072700
     31 HANA        -3.3130     4.5350    -0.1510 hc         1 VGB       0.072700
     32 HNAK        -3.3430     1.8930     0.9760 hn         1 VGB       0.343500
     33 HAC         -2.5020     0.6120    -1.4760 h1         1 VGB       0.126700
     34 HAB         -3.8840    -0.3340     1.0620 h1         1 VGB       0.060700
     35 HOAG        -5.6030    -0.3910    -0.4950 ho         1 VGB       0.446000
     36 HAA         -3.1820    -1.8840    -1.4670 h1         1 VGB       0.068700
     37 HOAH        -4.8510    -3.0990    -0.9130 ho         1 VGB       0.438000
     38 HAF         -2.6560    -2.4670     1.4850 h1         1 VGB       0.123700
     39 HAI         -2.8420    -4.3540    -0.2210 h1         1 VGB       0.052700
     40 HAIA        -1.3940    -3.7040    -0.9930 h1         1 VGB       0.052700
     41 HOAJ        -0.7790    -5.2300     0.5840 ho         1 VGB       0.438000
     42 HAQ          0.4560    -2.7150     1.0480 h4         1 VGB       0.234000
     43 HNAO         0.1270     1.2820    -0.1890 hn         1 VGB       0.375700
     44 HAR          2.4220     0.5430     1.3260 hc         1 VGB       0.085200
     45 HARA         2.7480    -1.1730     1.1790 hc         1 VGB       0.085200
     46 HAS          2.8550    -0.9490    -1.3100 hc         1 VGB       0.051700
     47 HASA         2.5210     0.7680    -1.1840 hc         1 VGB       0.051700
     48 HAU          5.0460    -1.8520    -0.6400 ha         1 VGB       0.125500
     49 HAV          7.4350    -1.4030    -0.2390 ha         1 VGB       0.141000
     50 HAW          8.2170     0.9120     0.1530 ha         1 VGB       0.144000
     51 HAX          6.5850     2.7750     0.1450 ha         1 VGB       0.141000
     52 HAY          4.1960     2.3230    -0.2530 ha         1 VGB       0.125500
@<TRIPOS>BOND
     1     1     2 1   
     2     1    27 1   
     3     1    28 1   
     4     1    29 1   
     5     2     3 1   
     6     2    30 1   
     7     2    31 1   
     8     3     4 2   
     9     3     5 1   
    10     5     6 1   
    11     5    32 1   
    12     6     7 1   
    13     6    16 1   
    14     6    33 1   
    15     7     8 1   
    16     7     9 1   
    17     7    34 1   
    18     8    35 1   
    19     9    10 1   
    20     9    11 1   
    21     9    36 1   
    22    10    37 1   
    23    11    12 1   
    24    11    14 1   
    25    11    38 1   
    26    12    13 1   
    27    12    39 1   
    28    12    40 1   
    29    13    41 1   
    30    14    15 1   
    31    14    16 2   
    32    15    18 2   
    33    15    42 1   
    34    16    17 1   
    35    17    18 1   
    36    17    43 1   
    37    18    19 1   
    38    19    20 1   
    39    19    44 1   
    40    19    45 1   
    41    20    21 1   
    42    20    46 1   
    43    20    47 1   
    44    21    22 ar  
    45    21    26 ar  
    46    22    23 ar  
    47    22    48 1   
    48    23    24 ar  
    49    23    49 1   
    50    24    25 ar  
    51    24    50 1   
    52    25    26 ar  
    53    25    51 1   
    54    26    52 1   
@<TRIPOS>SUBSTRUCTURE
     1 VGB         1 TEMP              0 ****  ****    0 ROOT
