@<TRIPOS>MOLECULE
VGB
   52    54     1     0     0
SMALL
No Charge or Current Charge


@<TRIPOS>ATOM
      1 CBA         -1.5950     4.8440     1.3400 c3         1 VGB      -0.083100
      2 CAN         -2.4700     4.3720     0.1560 c3         1 VGB      -0.149400
      3 CAL         -1.9960     3.0270    -0.3960 c          1 VGB       0.608100
      4 OAM         -0.9850     2.9160    -1.0750 o          1 VGB      -0.619100
      5 NAK         -2.7940     1.9500    -0.0910 ns         1 VGB      -0.510900
      6 CAC         -2.6200     0.5580    -0.5580 c6         1 VGB       0.176000
      7 CAB         -3.8080    -0.3310    -0.0740 c6         1 VGB       0.158300
      8 OAG         -5.0330     0.0630    -0.7150 oh         1 VGB      -0.634000
      9 CAA         -3.5340    -1.8460    -0.3430 c6         1 VGB       0.121300
     10 OAH         -4.7200    -2.5960    -0.0020 oh         1 VGB      -0.641000
     11 CAF         -2.2970    -2.3550     0.4780 c6         1 VGB       0.048300
     12 CAI         -1.9000    -3.8100     0.0650 c3         1 VGB       0.153600
     13 OAJ         -1.0610    -4.4540     1.0390 oh         1 VGB      -0.664000
     14 NAE         -1.1800    -1.3730     0.3720 na         1 VGB       0.012300
     15 CAQ          0.1620    -1.5720     0.7220 cc         1 VGB      -0.155000
     16 CAD         -1.3320    -0.0700    -0.0700 cc         1 VGB      -0.073600
     17 NAO         -0.0770     0.4740    -0.0660 na         1 VGB      -0.057000
     18 CAP          0.8510    -0.4120     0.4270 cd         1 VGB      -0.112300
     19 CAR          2.3160    -0.1050     0.5940 c3         1 VGB      -0.028100
     20 CAS          3.0840    -0.1510    -0.7430 c3         1 VGB      -0.022100
     21 CAT          4.5670     0.1480    -0.5620 ca         1 VGB      -0.108300
     22 CAU          5.4750    -0.8960    -0.3010 ca         1 VGB      -0.102500
     23 CAV          6.8430    -0.6200    -0.1280 ca         1 VGB      -0.101000
     24 CAW          7.3100     0.7030    -0.2150 ca         1 VGB      -0.091000
     25 CAX          6.4070     1.7490    -0.4730 ca         1 VGB      -0.101000
     26 CAY          5.0400     1.4720    -0.6460 ca         1 VGB      -0.102500
     27 HBA         -0.5490     4.9610     1.0290 hc         1 VGB       0.053033
     28 HBAA        -1.9490     5.8100     1.7190 hc         1 VGB       0.053033
     29 HBAB        -1.6310     4.1190     2.1630 hc         1 VGB       0.053033
     30 HAN         -3.5070     4.2950     0.5030 hc         1 VGB       0.072700
     31 HANA        -2.4010     5.1210    -0.6410 hc         1 VGB       0.072700
     32 HNAK        -3.6270     2.1570     0.4490 hn         1 VGB       0.343500
     33 HAC         -2.6210     0.5630    -1.6590 h1         1 VGB       0.126700
     34 HAB         -3.9050    -0.2020     1.0150 h1         1 VGB       0.060700
     35 HOAG        -5.6430    -0.6980    -0.5740 ho         1 VGB       0.485000
     36 HAA         -3.3090    -1.9590    -1.4150 h1         1 VGB       0.068700
     37 HOAH        -4.7570    -3.3890    -0.5870 ho         1 VGB       0.477000
     38 HAF         -2.5940    -2.3900     1.5350 h1         1 VGB       0.123700
     39 HAI         -2.8160    -4.4020    -0.0640 h1         1 VGB       0.052700
     40 HAIA        -1.4000    -3.7710    -0.9130 h1         1 VGB       0.052700
     41 HOAJ        -0.9000    -5.3740     0.7240 ho         1 VGB       0.477000
     42 HAQ          0.5250    -2.5050     1.1360 h4         1 VGB       0.216000
     43 HNAO         0.1240     1.4190    -0.3930 hn         1 VGB       0.426000
     44 HAR          2.4450     0.8840     1.0500 hc         1 VGB       0.085200
     45 HARA         2.7700    -0.8230     1.2890 hc         1 VGB       0.085200
     46 HAS          2.9510    -1.1410    -1.1980 hc         1 VGB       0.051700
     47 HASA         2.6370     0.5670    -1.4420 hc         1 VGB       0.051700
     48 HAU          5.1220    -1.9230    -0.2300 ha         1 VGB       0.107500
     49 HAV          7.5400    -1.4300     0.0730 ha         1 VGB       0.123000
     50 HAW          8.3680     0.9170    -0.0810 ha         1 VGB       0.126000
     51 HAX          6.7670     2.7740    -0.5390 ha         1 VGB       0.123000
     52 HAY          4.3480     2.2890    -0.8430 ha         1 VGB       0.107500
@<TRIPOS>BOND
     1     1     2 1   
     2     1    27 1   
     3     1    28 1   
     4     1    29 1   
     5     2     3 1   
     6     2    30 1   
     7     2    31 1   
     8     3     4 2   
     9     3     5 1   
    10     5     6 1   
    11     5    32 1   
    12     6     7 1   
    13     6    16 1   
    14     6    33 1   
    15     7     8 1   
    16     7     9 1   
    17     7    34 1   
    18     8    35 1   
    19     9    10 1   
    20     9    11 1   
    21     9    36 1   
    22    10    37 1   
    23    11    12 1   
    24    11    14 1   
    25    11    38 1   
    26    12    13 1   
    27    12    39 1   
    28    12    40 1   
    29    13    41 1   
    30    14    15 1   
    31    14    16 2   
    32    15    18 2   
    33    15    42 1   
    34    16    17 1   
    35    17    18 1   
    36    17    43 1   
    37    18    19 1   
    38    19    20 1   
    39    19    44 1   
    40    19    45 1   
    41    20    21 1   
    42    20    46 1   
    43    20    47 1   
    44    21    22 ar  
    45    21    26 ar  
    46    22    23 ar  
    47    22    48 1   
    48    23    24 ar  
    49    23    49 1   
    50    24    25 ar  
    51    24    50 1   
    52    25    26 ar  
    53    25    51 1   
    54    26    52 1   
@<TRIPOS>SUBSTRUCTURE
     1 VGB         1 TEMP              0 ****  ****    0 ROOT
