@<TRIPOS>MOLECULE
VGC
   44    47     1     0     0
SMALL
No Charge or Current Charge


@<TRIPOS>ATOM
      1 C15         -0.6140    -2.4330     1.3560 c6         1 VGC      -0.071400
      2 C18         -1.2610    -3.8410     1.3960 c6         1 VGC      -0.072400
      3 C19         -0.9980    -4.6150     0.0800 c6         1 VGC      -0.073400
      4 C17         -1.4830    -3.8120    -1.1520 c6         1 VGC      -0.072400
      5 C16         -0.8400    -2.4030    -1.1930 c6         1 VGC      -0.071400
      6 C14         -1.1100    -1.6230     0.1240 c6         1 VGC       0.021600
      7 C5          -0.4890    -0.2320     0.0760 cc         1 VGC      -0.077300
      8 C2           0.8990     0.0090     0.0690 cc         1 VGC      -0.256000
      9 S1           2.3780    -0.9350     0.0200 ss         1 VGC       0.191000
     10 C3           3.3190     0.5840     0.0180 cc         1 VGC      -0.170600
     11 C6           4.8010     0.6100    -0.0230 c          1 VGC       0.728600
     12 O1           5.4060    -0.4520    -0.0540 o          1 VGC      -0.709000
     13 O2           5.3730     1.6920    -0.0240 o          1 VGC      -0.709000
     14 C4           2.4990     1.7070     0.0520 cd         1 VGC      -0.164000
     15 C1           1.1430     1.3100     0.0850 cd         1 VGC      -0.108000
     16 N1          -0.0680     1.9920     0.0990 na         1 VGC       0.030000
     17 C20         -0.2050     3.4510    -0.0300 c3         1 VGC       0.067900
     18 C7          -1.1130     1.0180     0.1200 cd         1 VGC      -0.148000
     19 C8          -2.5610     1.3250    -0.0080 ca         1 VGC       0.012000
     20 C9          -3.1180     2.4450     0.6510 ca         1 VGC      -0.103000
     21 C10         -4.4860     2.7470     0.5330 ca         1 VGC      -0.119500
     22 C11         -5.3200     1.9370    -0.2520 ca         1 VGC      -0.124000
     23 C12         -4.7820     0.8280    -0.9200 ca         1 VGC      -0.119500
     24 C13         -3.4150     0.5250    -0.7990 ca         1 VGC      -0.103000
     25 H151        -0.8540    -1.8890     2.2790 hc         1 VGC       0.048200
     26 H152         0.4760    -2.5450     1.3360 hc         1 VGC       0.048200
     27 H181        -0.8650    -4.4090     2.2480 hc         1 VGC       0.027700
     28 H182        -2.3440    -3.7460     1.5600 hc         1 VGC       0.027700
     29 H14         -2.1950    -1.5370     0.2520 hc         1 VGC       0.038700
     30 H191         0.0770    -4.8250    -0.0150 hc         1 VGC       0.033200
     31 H192        -1.5050    -5.5890     0.1130 hc         1 VGC       0.033200
     32 H171        -1.2390    -4.3590    -2.0730 hc         1 VGC       0.027700
     33 H172        -2.5770    -3.7180    -1.1250 hc         1 VGC       0.027700
     34 H161         0.2410    -2.5010    -1.3600 hc         1 VGC       0.048200
     35 H162        -1.2350    -1.8410    -2.0500 hc         1 VGC       0.048200
     36 H4           2.8510     2.7340     0.0520 ha         1 VGC       0.140000
     37 H201        -1.0610     3.6910    -0.6720 h1         1 VGC       0.041700
     38 H202        -0.3480     3.8970     0.9620 h1         1 VGC       0.041700
     39 H203         0.7020     3.8700    -0.4830 h1         1 VGC       0.041700
     40 H9          -2.5010     3.0670     1.2910 ha         1 VGC       0.119500
     41 H13         -3.0170    -0.3090    -1.3670 ha         1 VGC       0.119500
     42 H10         -4.8990     3.6060     1.0570 ha         1 VGC       0.103500
     43 H11         -6.3780     2.1710    -0.3440 ha         1 VGC       0.100000
     44 H12         -5.4230     0.2060    -1.5420 ha         1 VGC       0.103500
@<TRIPOS>BOND
     1     1     2 1   
     2     1     6 1   
     3     1    25 1   
     4     1    26 1   
     5     2     3 1   
     6     2    27 1   
     7     2    28 1   
     8     3     4 1   
     9     3    30 1   
    10     3    31 1   
    11     4     5 1   
    12     4    32 1   
    13     4    33 1   
    14     5     6 1   
    15     5    34 1   
    16     5    35 1   
    17     6     7 1   
    18     6    29 1   
    19     7     8 1   
    20     7    18 2   
    21     8     9 1   
    22     8    15 2   
    23     9    10 1   
    24    10    11 1   
    25    10    14 2   
    26    11    12 1   
    27    11    13 1   
    28    14    15 1   
    29    14    36 1   
    30    15    16 1   
    31    16    17 1   
    32    16    18 1   
    33    17    37 1   
    34    17    38 1   
    35    17    39 1   
    36    18    19 1   
    37    19    20 ar  
    38    19    24 ar  
    39    20    21 ar  
    40    20    40 1   
    41    21    22 ar  
    42    21    42 1   
    43    22    23 ar  
    44    22    43 1   
    45    23    24 ar  
    46    23    44 1   
    47    24    41 1   
@<TRIPOS>SUBSTRUCTURE
     1 VGC         1 TEMP              0 ****  ****    0 ROOT
