@<TRIPOS>MOLECULE
VGC
   44    47     1     0     0
SMALL
bcc


@<TRIPOS>ATOM
      1 C15         -0.7070    -2.3700     1.3550 c6         1 VGC      -0.071400
      2 C18         -1.3800    -3.7380     1.4160 c6         1 VGC      -0.072400
      3 C19         -1.1000    -4.5550     0.1600 c6         1 VGC      -0.073400
      4 C17         -1.5100    -3.7920    -1.0950 c6         1 VGC      -0.072400
      5 C16         -0.8410    -2.4230    -1.1600 c6         1 VGC      -0.071400
      6 C14         -1.1140    -1.5920     0.0990 c6         1 VGC       0.021600
      7 C5          -0.4400    -0.2590     0.0270 cc         1 VGC      -0.077300
      8 C2           0.9530    -0.0010     0.0380 cc         1 VGC      -0.111100
      9 S1           2.4700    -0.8210     0.0790 ss         1 VGC      -0.098800
     10 C3           3.3310     0.6940     0.0130 cc         1 VGC      -0.025700
     11 C6           4.8300     0.6450     0.0150 c          1 VGC       0.939200
     12 O1           5.3260    -0.4980     0.0630 o          1 VGC      -0.814300
     13 O2           5.4260     1.7370    -0.0330 o          1 VGC      -0.814300
     14 C4           2.5030     1.7770    -0.0310 cd         1 VGC      -0.182000
     15 C1           1.1450     1.3720    -0.0090 cd         1 VGC      -0.057300
     16 N1          -0.0750     1.9780    -0.0250 na         1 VGC      -0.042100
     17 C20         -0.2690     3.3810    -0.3120 c3         1 VGC       0.038600
     18 C7          -1.0390     0.9890    -0.0240 cd         1 VGC      -0.097300
     19 C8          -2.4740     1.2950    -0.0380 ca         1 VGC       0.012000
     20 C9          -3.0550     2.0900     0.9530 ca         1 VGC      -0.121000
     21 C10         -4.4170     2.3530     0.9400 ca         1 VGC      -0.137500
     22 C11         -5.2230     1.8170    -0.0570 ca         1 VGC      -0.142000
     23 C12         -4.6580     1.0200    -1.0430 ca         1 VGC      -0.137500
     24 C13         -3.2930     0.7660    -1.0360 ca         1 VGC      -0.121000
     25 H151        -0.9580    -1.7860     2.2440 hc         1 VGC       0.048200
     26 H152         0.3810    -2.5050     1.3690 hc         1 VGC       0.048200
     27 H181        -1.0410    -4.2780     2.3040 hc         1 VGC       0.027700
     28 H182        -2.4610    -3.6050     1.5300 hc         1 VGC       0.027700
     29 H14         -2.1950    -1.4240     0.1580 hc         1 VGC       0.038700
     30 H191        -0.0300    -4.7850     0.1090 hc         1 VGC       0.033200
     31 H192        -1.6210    -5.5140     0.2070 hc         1 VGC       0.033200
     32 H171        -1.2620    -4.3700    -1.9890 hc         1 VGC       0.027700
     33 H172        -2.5980    -3.6630    -1.1020 hc         1 VGC       0.027700
     34 H161         0.2410    -2.5530    -1.2810 hc         1 VGC       0.048200
     35 H162        -1.1870    -1.8760    -2.0410 hc         1 VGC       0.048200
     36 H4           2.8610     2.7960    -0.0760 ha         1 VGC       0.158000
     37 H201        -0.2570     3.5740    -1.3860 h1         1 VGC       0.041700
     38 H202        -1.2150     3.7290     0.0920 h1         1 VGC       0.041700
     39 H203         0.5260     3.9580     0.1550 h1         1 VGC       0.041700
     40 H9          -2.4410     2.4930     1.7490 ha         1 VGC       0.137500
     41 H13         -2.8530     0.1620    -1.8200 ha         1 VGC       0.137500
     42 H10         -4.8510     2.9690     1.7160 ha         1 VGC       0.121500
     43 H11         -6.2870     2.0210    -0.0640 ha         1 VGC       0.118000
     44 H12         -5.2770     0.5990    -1.8250 ha         1 VGC       0.121500
@<TRIPOS>BOND
     1     1     2 1   
     2     1     6 1   
     3     1    25 1   
     4     1    26 1   
     5     2     3 1   
     6     2    27 1   
     7     2    28 1   
     8     3     4 1   
     9     3    30 1   
    10     3    31 1   
    11     4     5 1   
    12     4    32 1   
    13     4    33 1   
    14     5     6 1   
    15     5    34 1   
    16     5    35 1   
    17     6     7 1   
    18     6    29 1   
    19     7     8 1   
    20     7    18 2   
    21     8     9 1   
    22     8    15 2   
    23     9    10 1   
    24    10    11 1   
    25    10    14 2   
    26    11    12 1   
    27    11    13 1   
    28    14    15 1   
    29    14    36 1   
    30    15    16 1   
    31    16    17 1   
    32    16    18 1   
    33    17    37 1   
    34    17    38 1   
    35    17    39 1   
    36    18    19 1   
    37    19    20 ar  
    38    19    24 ar  
    39    20    21 ar  
    40    20    40 1   
    41    21    22 ar  
    42    21    42 1   
    43    22    23 ar  
    44    22    43 1   
    45    23    24 ar  
    46    23    44 1   
    47    24    41 1   
@<TRIPOS>SUBSTRUCTURE
     1 VGC         1 TEMP              0 ****  ****    0 ROOT
