@<TRIPOS>MOLECULE
VGD
   17    18     1     0     0
SMALL
bcc


@<TRIPOS>ATOM
      1 CLA         -3.4260    -0.4870     0.0070 cl         1 VGD      -0.120400
      2 CAH         -1.7630     0.0250     0.0250 ca         1 VGD       0.032400
      3 CAC         -1.4810     1.3900     0.0260 ca         1 VGD      -0.137000
      4 CAD         -0.1650     1.8340     0.0390 ca         1 VGD      -0.076000
      5 CAK          0.8570     0.8930     0.0500 ca         1 VGD       0.103400
      6 CAJ          0.5310    -0.4770     0.0490 ca         1 VGD      -0.079200
      7 CAE         -0.7700    -0.9450     0.0360 ca         1 VGD      -0.122000
      8 NAG          2.2210     1.0600     0.0590 nc         1 VGD      -0.636100
      9 CAI          2.7080    -0.1570     0.0670 cd         1 VGD       0.635700
     10 NAF          1.7430    -1.1200     0.0610 na         1 VGD      -0.298300
     11 NAA          4.0220    -0.4710     0.1350 nv         1 VGD      -0.898800
     12 HAC         -2.2910     2.1060     0.0170 ha         1 VGD       0.147000
     13 HAD          0.0520     2.8940     0.0400 ha         1 VGD       0.150000
     14 HAE         -1.0030    -2.0010     0.0340 ha         1 VGD       0.148000
     15 HNAF         1.8950    -2.1160     0.0750 hn         1 VGD       0.305700
     16 HNAA         4.6550     0.2690    -0.1210 hn         1 VGD       0.422300
     17 HNAB         4.3040    -1.3780    -0.2000 hn         1 VGD       0.422300
@<TRIPOS>BOND
     1     1     2 1   
     2     2     3 ar  
     3     2     7 ar  
     4     3     4 ar  
     5     3    12 1   
     6     4     5 ar  
     7     4    13 1   
     8     5     6 ar  
     9     5     8 1   
    10     6     7 ar  
    11     6    10 1   
    12     7    14 1   
    13     8     9 2   
    14     9    10 1   
    15     9    11 1   
    16    10    15 1   
    17    11    16 1   
    18    11    17 1   
@<TRIPOS>SUBSTRUCTURE
     1 VGD         1 TEMP              0 ****  ****    0 ROOT
