@<TRIPOS>MOLECULE
VGD
   17    18     1     0     0
SMALL
No Charge or Current Charge


@<TRIPOS>ATOM
      1 ClA         -3.4650    -0.5080    -0.0030 cl         1 VGD      -0.212000
      2 CAH         -1.7880     0.0200     0.0200 ca         1 VGD       0.124000
      3 CAC         -1.4860     1.4020     0.0210 ca         1 VGD      -0.119000
      4 CAD         -0.1420     1.8370     0.0390 ca         1 VGD      -0.058000
      5 CAK          0.8760     0.8710     0.0560 ca         1 VGD       0.103400
      6 CAJ          0.5670    -0.4650     0.0540 ca         1 VGD      -0.079200
      7 CAE         -0.7530    -0.9360     0.0370 ca         1 VGD      -0.104000
      8 NAG          2.2470     1.0760     0.0750 nc         1 VGD      -0.636100
      9 CAI          2.6880    -0.1750     0.0850 cd         1 VGD       0.635700
     10 NAF          1.7350    -1.1770     0.0720 na         1 VGD      -0.348600
     11 NAA          3.9930    -0.4480     0.1030 nv         1 VGD      -1.009200
     12 HAC         -2.2920     2.1310     0.0080 ha         1 VGD       0.129000
     13 HAD          0.1010     2.8970     0.0410 ha         1 VGD       0.132000
     14 HAE         -0.9740    -2.0000     0.0360 ha         1 VGD       0.130000
     15 HNAF         1.8850    -2.1750     0.0950 hn         1 VGD       0.356000
     16 HNAA         4.6060     0.3280    -0.1180 hn         1 VGD       0.477500
     17 HNAB         4.2920    -1.3610    -0.2220 hn         1 VGD       0.477500
@<TRIPOS>BOND
     1     1     2 1   
     2     2     3 ar  
     3     2     7 ar  
     4     3     4 ar  
     5     3    12 1   
     6     4     5 ar  
     7     4    13 1   
     8     5     6 ar  
     9     5     8 1   
    10     6     7 ar  
    11     6    10 1   
    12     7    14 1   
    13     8     9 2   
    14     9    10 1   
    15     9    11 1   
    16    10    15 1   
    17    11    16 1   
    18    11    17 1   
@<TRIPOS>SUBSTRUCTURE
     1 VGD         1 TEMP              0 ****  ****    0 ROOT
