@<TRIPOS>MOLECULE
VGF
   40    43     1     0     0
SMALL
bcc


@<TRIPOS>ATOM
      1 CAN         -1.4570     0.2520    -1.5780 ca         1 VGF      -0.103000
      2 CAS         -2.5860     0.6100    -0.8640 ca         1 VGF       0.028400
      3 CLAC        -3.6460     1.8060    -1.5060 cl         1 VGF      -0.083400
      4 CAR         -2.8410     0.0300     0.3730 ca         1 VGF       0.029400
      5 CLAB        -4.2250     0.4880     1.2920 cl         1 VGF      -0.082400
      6 CAK         -1.9680    -0.9210     0.8760 ca         1 VGF      -0.115000
      7 CAJ         -0.8390    -1.2780     0.1570 ca         1 VGF      -0.094000
      8 CAQ         -0.5690    -0.6840    -1.0690 ca         1 VGF      -0.094300
      9 CAO          0.6580    -1.0280    -1.8740 c3         1 VGF       0.105600
     10 NAY          1.7780    -1.4460    -1.0630 na         1 VGF      -0.182300
     11 CAX          2.3600    -0.7690     0.0020 ca         1 VGF      -0.064200
     12 CAU          2.3520    -2.6910    -1.0860 cc         1 VGF       0.619700
     13 NAA          1.9700    -3.6420    -1.9780 nv         1 VGF      -0.887800
     14 NAP          3.2330    -2.8780    -0.1410 nd         1 VGF      -0.636100
     15 CAW          3.2500    -1.7020     0.5680 ca         1 VGF       0.096400
     16 CAM          3.9890    -1.3790     1.6990 ca         1 VGF      -0.082000
     17 CAG          3.8110    -0.1220     2.2540 ca         1 VGF      -0.143000
     18 CAL          2.9280     0.7940     1.6870 ca         1 VGF      -0.115000
     19 CAV          2.1860     0.5060     0.5390 cp         1 VGF      -0.031000
     20 CAT          1.2980     1.5450    -0.0270 cp         1 VGF      -0.032000
     21 CAH          0.2620     2.0750     0.7410 ca         1 VGF      -0.120500
     22 CAE         -0.5640     3.0630     0.2270 ca         1 VGF      -0.131500
     23 CAD         -0.3640     3.5400    -1.0620 ca         1 VGF      -0.124000
     24 CAF          0.6760     3.0320    -1.8270 ca         1 VGF      -0.131500
     25 CAI          1.5050     2.0450    -1.3110 ca         1 VGF      -0.120500
     26 HAN         -1.2530     0.7340    -2.5250 ha         1 VGF       0.149000
     27 HAK         -2.1680    -1.3770     1.8360 ha         1 VGF       0.153000
     28 HAJ         -0.1700    -2.0160     0.5790 ha         1 VGF       0.154000
     29 HAO1         0.4140    -1.8410    -2.5580 h1         1 VGF       0.064700
     30 HAO2         0.9390    -0.1820    -2.5010 h1         1 VGF       0.064700
     31 HAA1         1.7770    -3.3460    -2.9220 hn         1 VGF       0.413800
     32 HAA2         2.5530    -4.4640    -1.9560 hn         1 VGF       0.413800
     33 HAM          4.6760    -2.0950     2.1330 ha         1 VGF       0.147000
     34 HAG          4.3690     0.1600     3.1380 ha         1 VGF       0.133000
     35 HAL          2.8240     1.7760     2.1320 ha         1 VGF       0.135000
     36 HAH          0.0860     1.6930     1.7380 ha         1 VGF       0.134500
     37 HAI          2.3230     1.6620    -1.9100 ha         1 VGF       0.134500
     38 HAE         -1.3750     3.4530     0.8290 ha         1 VGF       0.132500
     39 HAD         -1.0150     4.3040    -1.4670 ha         1 VGF       0.133000
     40 HAF          0.8480     3.4050    -2.8290 ha         1 VGF       0.132500
@<TRIPOS>BOND
     1     1     2 ar  
     2     1     8 ar  
     3     1    26 1   
     4     2     3 1   
     5     2     4 ar  
     6     4     5 1   
     7     4     6 ar  
     8     6     7 ar  
     9     6    27 1   
    10     7     8 ar  
    11     7    28 1   
    12     8     9 1   
    13     9    10 1   
    14     9    29 1   
    15     9    30 1   
    16    10    11 1   
    17    10    12 1   
    18    11    15 ar  
    19    11    19 ar  
    20    12    13 1   
    21    12    14 2   
    22    13    31 1   
    23    13    32 1   
    24    14    15 1   
    25    15    16 ar  
    26    16    17 ar  
    27    16    33 1   
    28    17    18 ar  
    29    17    34 1   
    30    18    19 ar  
    31    18    35 1   
    32    19    20 1   
    33    20    21 ar  
    34    20    25 ar  
    35    21    22 ar  
    36    21    36 1   
    37    22    23 ar  
    38    22    38 1   
    39    23    24 ar  
    40    23    39 1   
    41    24    25 ar  
    42    24    40 1   
    43    25    37 1   
@<TRIPOS>SUBSTRUCTURE
     1 VGF         1 TEMP              0 ****  ****    0 ROOT
