@<TRIPOS>MOLECULE
VGF
   40    43     1     0     0
SMALL
No Charge or Current Charge


@<TRIPOS>ATOM
      1 CAN         -1.5930     0.2510    -1.4200 ca         1 VGF      -0.085000
      2 CAS         -2.7450     0.5140    -0.6590 ca         1 VGF       0.120000
      3 ClAC        -3.8930     1.7230    -1.2360 cl         1 VGF      -0.175000
      4 CAR         -2.9620    -0.1780     0.5490 ca         1 VGF       0.121000
      5 ClAB        -4.3930     0.1300     1.5330 cl         1 VGF      -0.174000
      6 CAK         -2.0270    -1.1330     0.9840 ca         1 VGF      -0.097000
      7 CAJ         -0.8740    -1.3910     0.2240 ca         1 VGF      -0.076000
      8 CAQ         -0.6420    -0.6910    -0.9800 ca         1 VGF      -0.094300
      9 CAO          0.6150    -0.9220    -1.8210 c3         1 VGF       0.134900
     10 NAY          1.8070    -1.4050    -1.0870 na         1 VGF      -0.211600
     11 CAX          2.3920    -0.8070     0.0080 ca         1 VGF      -0.064200
     12 CAU          2.3640    -2.6840    -1.1180 cc         1 VGF       0.619700
     13 NAA          2.0530    -3.6190    -2.0260 nv         1 VGF      -0.998200
     14 NAP          3.2130    -2.9340    -0.1250 nd         1 VGF      -0.636100
     15 CAW          3.2130    -1.7360     0.5860 ca         1 VGF       0.096400
     16 CAM          3.9210    -1.4260     1.7530 ca         1 VGF      -0.064000
     17 CAG          3.7600    -0.1380     2.3080 ca         1 VGF      -0.125000
     18 CAL          2.9150     0.8140     1.6870 ca         1 VGF      -0.097000
     19 CAV          2.2010     0.5170     0.4940 cp         1 VGF      -0.031000
     20 CAT          1.3700     1.5830    -0.1320 cp         1 VGF      -0.032000
     21 CAH          0.2510     2.1130     0.5540 ca         1 VGF      -0.102500
     22 CAE         -0.5230     3.1400    -0.0130 ca         1 VGF      -0.113500
     23 CAD         -0.1810     3.6630    -1.2710 ca         1 VGF      -0.106000
     24 CAF          0.9430     3.1690    -1.9540 ca         1 VGF      -0.113500
     25 CAI          1.7180     2.1440    -1.3830 ca         1 VGF      -0.102500
     26 HAN         -1.4310     0.8000    -2.3440 ha         1 VGF       0.131000
     27 HAK         -2.1960    -1.6700     1.9140 ha         1 VGF       0.135000
     28 HAJ         -0.1620    -2.1330     0.5790 ha         1 VGF       0.136000
     29 HAO1         0.3590    -1.6580    -2.5920 h1         1 VGF       0.064700
     30 HAO2         0.8790    -0.0080    -2.3610 h1         1 VGF       0.064700
     31 HAA1         1.7060    -3.2990    -2.9210 hn         1 VGF       0.469000
     32 HAA2         2.6570    -4.4330    -2.0450 hn         1 VGF       0.469000
     33 HAM          4.5730    -2.1610     2.2200 ha         1 VGF       0.129000
     34 HAG          4.2960     0.1270     3.2170 ha         1 VGF       0.115000
     35 HAL          2.8220     1.8040     2.1280 ha         1 VGF       0.117000
     36 HAH         -0.0220     1.7110     1.5260 ha         1 VGF       0.116500
     37 HAI          2.5930     1.7730    -1.9120 ha         1 VGF       0.116500
     38 HAE         -1.3890     3.5260     0.5200 ha         1 VGF       0.114500
     39 HAD         -0.7810     4.4560    -1.7130 ha         1 VGF       0.115000
     40 HAF          1.2160     3.5810    -2.9230 ha         1 VGF       0.114500
@<TRIPOS>BOND
     1     1     2 ar  
     2     1     8 ar  
     3     1    26 1   
     4     2     3 1   
     5     2     4 ar  
     6     4     5 1   
     7     4     6 ar  
     8     6     7 ar  
     9     6    27 1   
    10     7     8 ar  
    11     7    28 1   
    12     8     9 1   
    13     9    10 1   
    14     9    29 1   
    15     9    30 1   
    16    10    11 1   
    17    10    12 1   
    18    11    15 ar  
    19    11    19 ar  
    20    12    13 1   
    21    12    14 2   
    22    13    31 1   
    23    13    32 1   
    24    14    15 1   
    25    15    16 ar  
    26    16    17 ar  
    27    16    33 1   
    28    17    18 ar  
    29    17    34 1   
    30    18    19 ar  
    31    18    35 1   
    32    19    20 1   
    33    20    21 ar  
    34    20    25 ar  
    35    21    22 ar  
    36    21    36 1   
    37    22    23 ar  
    38    22    38 1   
    39    23    24 ar  
    40    23    39 1   
    41    24    25 ar  
    42    24    40 1   
    43    25    37 1   
@<TRIPOS>SUBSTRUCTURE
     1 VGF         1 TEMP              0 ****  ****    0 ROOT
