@<TRIPOS>MOLECULE
VGG
   43    45     1     0     0
SMALL
No Charge or Current Charge


@<TRIPOS>ATOM
      1 C20         -3.3590     3.0460    -0.9000 c3         1 VGG      -0.100433
      2 C19         -3.4840     1.6710    -0.1810 c3         1 VGG       0.135000
      3 C21         -3.8280     1.9450     1.3080 c3         1 VGG      -0.100433
      4 C22         -4.6460     0.8900    -0.8520 c3         1 VGG      -0.100433
      5 N7          -2.2080     0.8880    -0.2810 na         1 VGG      -0.022100
      6 N8          -1.0610     1.3490    -0.9460 nc         1 VGG      -0.528100
      7 C3          -2.0040    -0.3790     0.2660 ca         1 VGG       0.159500
      8 N2          -2.7950    -1.2170     0.9690 nb         1 VGG      -0.236000
      9 C1          -2.2330    -2.3940     1.3360 ca         1 VGG       0.191900
     10 N6          -0.9680    -2.8020     1.0710 nb         1 VGG      -0.312000
     11 C5          -0.2090    -1.9480     0.3730 ca         1 VGG       0.452900
     12 N10          1.0530    -2.3520     0.1270 nv         1 VGG      -1.059900
     13 C4          -0.7190    -0.7230    -0.0420 ca         1 VGG      -0.384900
     14 C9          -0.1620     0.3700    -0.7980 cd         1 VGG       0.385900
     15 C11          1.2160     0.5000    -1.4040 c3         1 VGG      -0.045400
     16 C12          2.3630     0.4630    -0.3980 ca         1 VGG      -0.085300
     17 C13          3.5230    -0.2880    -0.6730 ca         1 VGG      -0.128000
     18 C17          2.2730     1.1770     0.8140 ca         1 VGG      -0.100000
     19 C16          3.3270     1.1290     1.7420 ca         1 VGG      -0.104000
     20 C15          4.4760     0.3710     1.4650 ca         1 VGG      -0.111000
     21 C14          4.5790    -0.3410     0.2560 ca         1 VGG      -0.075300
     22 C18          5.8270    -1.1560    -0.0500 c3         1 VGG      -0.047800
     23 H201        -2.5620     3.6530    -0.4540 hc         1 VGG       0.049700
     24 H202        -3.1350     2.9160    -1.9650 hc         1 VGG       0.049700
     25 H203        -4.2930     3.6170    -0.8240 hc         1 VGG       0.049700
     26 H211        -4.7250     2.5710     1.3940 hc         1 VGG       0.049700
     27 H212        -4.0230     1.0170     1.8560 hc         1 VGG       0.049700
     28 H213        -3.0020     2.4660     1.8060 hc         1 VGG       0.049700
     29 H221        -4.4040     0.6590    -1.8960 hc         1 VGG       0.049700
     30 H222        -4.8520    -0.0530    -0.3350 hc         1 VGG       0.049700
     31 H223        -5.5710     1.4790    -0.8410 hc         1 VGG       0.049700
     32 H1          -2.8600    -3.0790     1.9020 h5         1 VGG       0.043100
     33 H101         1.3810    -3.1640     0.6410 hn         1 VGG       0.497500
     34 H102         1.7480    -1.6320    -0.0490 hn         1 VGG       0.497500
     35 H111         1.3380    -0.2970    -2.1460 hc         1 VGG       0.068200
     36 H112         1.2790     1.4350    -1.9740 hc         1 VGG       0.068200
     37 H13          3.6070    -0.8320    -1.6110 ha         1 VGG       0.110000
     38 H17          1.3890     1.7690     1.0400 ha         1 VGG       0.125000
     39 H16          3.2520     1.6810     2.6760 ha         1 VGG       0.115000
     40 H15          5.2880     0.3410     2.1880 ha         1 VGG       0.113000
     41 H181         6.5590    -0.5550    -0.6030 hc         1 VGG       0.043367
     42 H182         6.3100    -1.5100     0.8680 hc         1 VGG       0.043367
     43 H183         5.5890    -2.0370    -0.6580 hc         1 VGG       0.043367
@<TRIPOS>BOND
     1     1     2 1   
     2     1    23 1   
     3     1    24 1   
     4     1    25 1   
     5     2     3 1   
     6     2     4 1   
     7     2     5 1   
     8     3    26 1   
     9     3    27 1   
    10     3    28 1   
    11     4    29 1   
    12     4    30 1   
    13     4    31 1   
    14     5     6 1   
    15     5     7 1   
    16     6    14 2   
    17     7     8 ar  
    18     7    13 ar  
    19     8     9 ar  
    20     9    10 ar  
    21     9    32 1   
    22    10    11 ar  
    23    11    12 1   
    24    11    13 ar  
    25    12    33 1   
    26    12    34 1   
    27    13    14 1   
    28    14    15 1   
    29    15    16 1   
    30    15    35 1   
    31    15    36 1   
    32    16    17 ar  
    33    16    18 ar  
    34    17    21 ar  
    35    17    37 1   
    36    18    19 ar  
    37    18    38 1   
    38    19    20 ar  
    39    19    39 1   
    40    20    21 ar  
    41    20    40 1   
    42    21    22 1   
    43    22    41 1   
    44    22    42 1   
    45    22    43 1   
@<TRIPOS>SUBSTRUCTURE
     1 VGG         1 TEMP              0 ****  ****    0 ROOT
