@<TRIPOS>MOLECULE
VGG
   43    45     1     0     0
SMALL
bcc


@<TRIPOS>ATOM
      1 C20         -3.1410     2.9760    -0.8710 c3         1 VGG      -0.100433
      2 C19         -3.4020     1.6530    -0.1600 c3         1 VGG       0.105700
      3 C21         -3.7230     1.9210     1.3110 c3         1 VGG      -0.100433
      4 C22         -4.5610     0.9290    -0.8440 c3         1 VGG      -0.100433
      5 N7          -2.1920     0.8100    -0.2400 na         1 VGG       0.007200
      6 N8          -1.0830     1.2390    -0.8680 nc         1 VGG      -0.528100
      7 C3          -2.0020    -0.4250     0.2690 ca         1 VGG       0.487800
      8 N2          -2.8800    -1.1820     0.9400 nb         1 VGG      -0.762000
      9 C1          -2.3800    -2.3480     1.2870 ca         1 VGG       0.717900
     10 N6          -1.1540    -2.8260     1.0720 nb         1 VGG      -0.838000
     11 C5          -0.2770    -2.0650     0.4150 ca         1 VGG       0.781200
     12 N10          0.9480    -2.5580     0.2050 nv         1 VGG      -0.949500
     13 C4          -0.6900    -0.7950    -0.0440 ca         1 VGG      -0.515500
     14 C9          -0.1700     0.3060    -0.7730 cd         1 VGG       0.385900
     15 C11          1.1760     0.4800    -1.3930 c3         1 VGG      -0.045400
     16 C12          2.3060     0.4810    -0.3900 ca         1 VGG      -0.085300
     17 C13          3.4780    -0.2210    -0.6560 ca         1 VGG      -0.146000
     18 C17          2.2010     1.1880     0.8040 ca         1 VGG      -0.118000
     19 C16          3.2560     1.1880     1.7040 ca         1 VGG      -0.122000
     20 C15          4.4200     0.4830     1.4260 ca         1 VGG      -0.129000
     21 C14          4.5480    -0.2310     0.2390 ca         1 VGG      -0.075300
     22 C18          5.8100    -0.9760    -0.0860 c3         1 VGG      -0.047800
     23 H201        -2.3280     3.5370    -0.4120 hc         1 VGG       0.049700
     24 H202        -2.9110     2.8390    -1.9260 hc         1 VGG       0.049700
     25 H203        -4.0460     3.5790    -0.7990 hc         1 VGG       0.049700
     26 H211        -4.5830     2.5880     1.3820 hc         1 VGG       0.049700
     27 H212        -3.9660     1.0030     1.8430 hc         1 VGG       0.049700
     28 H213        -2.8820     2.4020     1.8120 hc         1 VGG       0.049700
     29 H221        -4.3140     0.6890    -1.8790 hc         1 VGG       0.049700
     30 H222        -4.8220     0.0080    -0.3260 hc         1 VGG       0.049700
     31 H223        -5.4420     1.5730    -0.8490 hc         1 VGG       0.049700
     32 H1          -3.0470    -3.0130     1.8260 h5         1 VGG       0.043100
     33 H101         1.2010    -3.4200     0.6580 hn         1 VGG       0.442300
     34 H102         1.7070    -1.9610    -0.0800 hn         1 VGG       0.442300
     35 H111         1.3450    -0.3090    -2.1310 hc         1 VGG       0.068200
     36 H112         1.1760     1.4210    -1.9490 hc         1 VGG       0.068200
     37 H13          3.5590    -0.7780    -1.5840 ha         1 VGG       0.128000
     38 H17          1.2950     1.7360     1.0350 ha         1 VGG       0.143000
     39 H16          3.1700     1.7380     2.6330 ha         1 VGG       0.133000
     40 H15          5.2330     0.4860     2.1420 ha         1 VGG       0.131000
     41 H181         6.5130    -0.3340    -0.6210 hc         1 VGG       0.043367
     42 H182         6.3140    -1.3270     0.8140 hc         1 VGG       0.043367
     43 H183         5.6130    -1.8380    -0.7220 hc         1 VGG       0.043367
@<TRIPOS>BOND
     1     1     2 1   
     2     1    23 1   
     3     1    24 1   
     4     1    25 1   
     5     2     3 1   
     6     2     4 1   
     7     2     5 1   
     8     3    26 1   
     9     3    27 1   
    10     3    28 1   
    11     4    29 1   
    12     4    30 1   
    13     4    31 1   
    14     5     6 1   
    15     5     7 1   
    16     6    14 2   
    17     7     8 ar  
    18     7    13 ar  
    19     8     9 ar  
    20     9    10 ar  
    21     9    32 1   
    22    10    11 ar  
    23    11    12 1   
    24    11    13 ar  
    25    12    33 1   
    26    12    34 1   
    27    13    14 1   
    28    14    15 1   
    29    15    16 1   
    30    15    35 1   
    31    15    36 1   
    32    16    17 ar  
    33    16    18 ar  
    34    17    21 ar  
    35    17    37 1   
    36    18    19 ar  
    37    18    38 1   
    38    19    20 ar  
    39    19    39 1   
    40    20    21 ar  
    41    20    40 1   
    42    21    22 1   
    43    22    41 1   
    44    22    42 1   
    45    22    43 1   
@<TRIPOS>SUBSTRUCTURE
     1 VGG         1 TEMP              0 ****  ****    0 ROOT
