@<TRIPOS>MOLECULE
VGH
   52    55     1     0     0
SMALL
No Charge or Current Charge


@<TRIPOS>ATOM
      1 Cl          18.3170    85.1740     3.3460 cl         1 VGH      -0.195000
      2 C13         18.4840    83.8440     4.4960 ca         1 VGH       0.111000
      3 C3          18.2260    82.5500     4.0120 ca         1 VGH      -0.074000
      4 C2          18.3170    81.4430     4.8650 ca         1 VGH      -0.128000
      5 C12         18.6600    81.6310     6.2090 ca         1 VGH       0.177000
      6 F           18.7310    80.5520     7.0220 f          1 VGH      -0.158000
      7 C17         18.8510    84.0570     5.8530 ca         1 VGH      -0.073300
      8 C18         18.9220    82.9220     6.7140 ca         1 VGH       0.101000
      9 Cl2         19.3230    83.0580     8.4360 cl         1 VGH      -0.162000
     10 C21         19.1480    85.4890     6.3510 c3         1 VGH       0.221600
     11 C1          18.0140    86.0620     7.2230 c3         1 VGH      -0.086100
     12 O27         20.3590    85.5250     7.1330 os         1 VGH      -0.346100
     13 C15         21.6070    85.1930     6.6160 ca         1 VGH       0.028100
     14 C4          21.8380    85.0270     5.2330 ca         1 VGH      -0.115000
     15 C19         22.7080    85.0020     7.4900 ca         1 VGH       0.569900
     16 N22         22.6430    85.1180     8.8290 nv         1 VGH      -1.032900
     17 N23         23.9370    84.6620     7.1110 nb         1 VGH      -0.718000
     18 C5          24.1410    84.4960     5.7820 ca         1 VGH       0.349900
     19 C14         23.1300    84.6660     4.8000 ca         1 VGH      -0.052000
     20 C16         23.3920    84.4730     3.3680 cc         1 VGH      -0.143000
     21 C6          22.5320    84.5840     2.2620 cc         1 VGH       0.248900
     22 C7          24.6170    84.1340     2.8730 cd         1 VGH      -0.157000
     23 N26         24.4240    84.0460     1.4880 na         1 VGH       0.119800
     24 N24         23.1160    84.3420     1.1080 nd         1 VGH      -0.521800
     25 C20         25.5160    83.7140     0.5210 c6         1 VGH       0.109300
     26 C8          26.0590    82.2760     0.7500 c6         1 VGH      -0.119400
     27 C10         25.0770    81.2080     0.2160 c6         1 VGH       0.148800
     28 N25         24.8080    81.4260    -1.2260 n7         1 VGH      -0.840400
     29 C11         24.2160    82.7580    -1.5010 c6         1 VGH       0.148800
     30 C9          25.1320    83.8960    -0.9800 c6         1 VGH      -0.119400
     31 H3          17.9500    82.4090     2.9690 ha         1 VGH       0.142000
     32 H2          18.1170    80.4420     4.4900 ha         1 VGH       0.145000
     33 H21         19.2660    86.1750     5.5050 h1         1 VGH       0.064700
     34 H11C        17.8510    85.4580     8.1220 hc         1 VGH       0.055033
     35 H12C        18.2530    87.0850     7.5350 hc         1 VGH       0.055033
     36 H13C        17.0780    86.0890     6.6540 hc         1 VGH       0.055033
     37 H4          21.0470    85.1760     4.5070 ha         1 VGH       0.124000
     38 H221        21.7160    85.0790     9.2390 hn         1 VGH       0.468500
     39 H222        23.3970    84.6890     9.3500 hn         1 VGH       0.468500
     40 H5          25.1550    84.2160     5.5020 h4         1 VGH       0.014100
     41 H6          21.4810    84.8410     2.2660 h4         1 VGH       0.037100
     42 H7          25.5730    83.9520     3.3500 h4         1 VGH       0.152000
     43 H20         26.3330    84.4170     0.7380 h1         1 VGH       0.053700
     44 H81C        27.0240    82.1660     0.2370 hc         1 VGH       0.053950
     45 H82C        26.2600    82.1010     1.8150 hc         1 VGH       0.053950
     46 H91C        24.6550    84.8720    -1.1410 hc         1 VGH       0.053950
     47 H92C        26.0520    83.9100    -1.5810 hc         1 VGH       0.053950
     48 H101        25.5050    80.2050     0.3670 h1         1 VGH       0.065450
     49 H102        24.1340    81.2520     0.7840 h1         1 VGH       0.065450
     50 H25         25.6980    81.3540    -1.7360 hn         1 VGH       0.394000
     51 H111        24.0610    82.8800    -2.5840 h1         1 VGH       0.065450
     52 H112        23.2250    82.8240    -1.0270 h1         1 VGH       0.065450
@<TRIPOS>BOND
     1     1     2 1   
     2     2     3 ar  
     3     2     7 ar  
     4     3     4 ar  
     5     3    31 1   
     6     4     5 ar  
     7     4    32 1   
     8     5     6 1   
     9     5     8 ar  
    10     7     8 ar  
    11     7    10 1   
    12     8     9 1   
    13    10    11 1   
    14    10    12 1   
    15    10    33 1   
    16    11    34 1   
    17    11    35 1   
    18    11    36 1   
    19    12    13 1   
    20    13    14 ar  
    21    13    15 ar  
    22    14    19 ar  
    23    14    37 1   
    24    15    16 1   
    25    15    17 ar  
    26    16    38 1   
    27    16    39 1   
    28    17    18 ar  
    29    18    19 ar  
    30    18    40 1   
    31    19    20 1   
    32    20    21 1   
    33    20    22 2   
    34    21    24 2   
    35    21    41 1   
    36    22    23 1   
    37    22    42 1   
    38    23    24 1   
    39    23    25 1   
    40    25    26 1   
    41    25    30 1   
    42    25    43 1   
    43    26    27 1   
    44    26    44 1   
    45    26    45 1   
    46    27    28 1   
    47    27    48 1   
    48    27    49 1   
    49    28    29 1   
    50    28    50 1   
    51    29    30 1   
    52    29    51 1   
    53    29    52 1   
    54    30    46 1   
    55    30    47 1   
@<TRIPOS>SUBSTRUCTURE
     1 VGH         1 TEMP              0 ****  ****    0 ROOT
