@<TRIPOS>MOLECULE
VGH
   52    55     1     0     0
SMALL
abcg2


@<TRIPOS>ATOM
      1 CL          18.4070    84.5060     3.3330 cl         1 VGH      -0.195000
      2 C13         18.6230    83.4530     4.7170 ca         1 VGH       0.111000
      3 C3          18.4540    82.0930     4.4950 ca         1 VGH      -0.074000
      4 C2          18.6060    81.2040     5.5450 ca         1 VGH      -0.128000
      5 C12         18.9080    81.7040     6.7950 ca         1 VGH       0.177000
      6 F           19.0410    80.8460     7.8220 f          1 VGH      -0.158000
      7 C17         18.9490    83.9830     5.9710 ca         1 VGH      -0.073300
      8 C18         19.0720    83.0650     7.0240 ca         1 VGH       0.101000
      9 CL2         19.4090    83.5470     8.6590 cl         1 VGH      -0.162000
     10 C21         19.1380    85.4810     6.1550 c3         1 VGH       0.221600
     11 C1          17.9490    86.1440     6.8290 c3         1 VGH      -0.086100
     12 O27         20.3010    85.7940     6.9340 os         1 VGH      -0.346100
     13 C15         21.5220    85.3770     6.4870 ca         1 VGH       0.028100
     14 C4          21.8100    84.9590     5.2080 ca         1 VGH      -0.115000
     15 C19         22.5580    85.4000     7.4520 ca         1 VGH       0.569900
     16 N22         22.3080    85.8810     8.7180 nv         1 VGH      -1.032900
     17 N23         23.7910    85.0120     7.1450 nb         1 VGH      -0.718000
     18 C5          24.0570    84.5960     5.9000 ca         1 VGH       0.349900
     19 C14         23.1160    84.5500     4.8800 ca         1 VGH      -0.052000
     20 C16         23.4440    84.0850     3.5320 cc         1 VGH      -0.143000
     21 C6          22.5560    83.7490     2.4850 cc         1 VGH       0.248900
     22 C7          24.6990    83.8600     2.9790 cd         1 VGH      -0.157000
     23 N26         24.5150    83.4260     1.7120 na         1 VGH       0.119800
     24 N24         23.2070    83.3540     1.3930 nd         1 VGH      -0.521800
     25 C20         25.5820    83.0730     0.7700 c6         1 VGH       0.109300
     26 C8          25.4660    81.6280     0.2650 c6         1 VGH      -0.119400
     27 C10         24.4740    81.4610    -0.8920 c6         1 VGH       0.148800
     28 N25         24.6830    82.4130    -1.9890 n7         1 VGH      -0.840400
     29 C11         24.6680    83.7990    -1.5080 c6         1 VGH       0.148800
     30 C9          25.6840    84.0680    -0.3950 c6         1 VGH      -0.119400
     31 H3          18.2090    81.7330     3.5060 ha         1 VGH       0.142000
     32 H2          18.4870    80.1380     5.4070 ha         1 VGH       0.145000
     33 H21         19.2650    85.9260     5.1700 h1         1 VGH       0.064700
     34 H11C        17.7740    85.7310     7.8210 hc         1 VGH       0.055033
     35 H12C        18.1300    87.2160     6.9150 hc         1 VGH       0.055033
     36 H13C        17.0580    85.9870     6.2210 hc         1 VGH       0.055033
     37 H4          21.0440    84.9540     4.4490 ha         1 VGH       0.124000
     38 H221        21.3460    85.8340     9.0180 hn         1 VGH       0.468500
     39 H222        22.9750    85.5950     9.4190 hn         1 VGH       0.468500
     40 H5          25.0760    84.2710     5.7190 h4         1 VGH       0.014100
     41 H6          21.4770    83.7720     2.4870 h4         1 VGH       0.037100
     42 H7          25.6880    83.9840     3.3860 h4         1 VGH       0.152000
     43 H20         26.4880    83.1540     1.3700 h1         1 VGH       0.053700
     44 H81C        26.4600    81.3310    -0.0820 hc         1 VGH       0.053950
     45 H82C        25.2010    80.9690     1.0960 hc         1 VGH       0.053950
     46 H91C        25.5850    85.0880    -0.0160 hc         1 VGH       0.053950
     47 H92C        26.6910    83.9730    -0.8120 hc         1 VGH       0.053950
     48 H101        24.5520    80.4490    -1.2940 h1         1 VGH       0.065450
     49 H102        23.4550    81.5920    -0.5250 h1         1 VGH       0.065450
     50 H25         25.5880    82.2280    -2.4140 hn         1 VGH       0.394000
     51 H111        24.8670    84.4630    -2.3520 h1         1 VGH       0.065450
     52 H112        23.6600    84.0190    -1.1510 h1         1 VGH       0.065450
@<TRIPOS>BOND
     1     1     2 1   
     2     2     3 ar  
     3     2     7 ar  
     4     3     4 ar  
     5     3    31 1   
     6     4     5 ar  
     7     4    32 1   
     8     5     6 1   
     9     5     8 ar  
    10     7     8 ar  
    11     7    10 1   
    12     8     9 1   
    13    10    11 1   
    14    10    12 1   
    15    10    33 1   
    16    11    34 1   
    17    11    35 1   
    18    11    36 1   
    19    12    13 1   
    20    13    14 ar  
    21    13    15 ar  
    22    14    19 ar  
    23    14    37 1   
    24    15    16 1   
    25    15    17 ar  
    26    16    38 1   
    27    16    39 1   
    28    17    18 ar  
    29    18    19 ar  
    30    18    40 1   
    31    19    20 1   
    32    20    21 1   
    33    20    22 2   
    34    21    24 2   
    35    21    41 1   
    36    22    23 1   
    37    22    42 1   
    38    23    24 1   
    39    23    25 1   
    40    25    26 1   
    41    25    30 1   
    42    25    43 1   
    43    26    27 1   
    44    26    44 1   
    45    26    45 1   
    46    27    28 1   
    47    27    48 1   
    48    27    49 1   
    49    28    29 1   
    50    28    50 1   
    51    29    30 1   
    52    29    51 1   
    53    29    52 1   
    54    30    46 1   
    55    30    47 1   
@<TRIPOS>SUBSTRUCTURE
     1 VGH         1 TEMP              0 ****  ****    0 ROOT
