@<TRIPOS>MOLECULE
VGI
   41    44     1     0     0
SMALL
No Charge or Current Charge


@<TRIPOS>ATOM
      1 C14         -3.0510     0.5650     0.0900 ca         1 VGI      -0.062000
      2 C15         -4.4430     0.6210     0.2800 ca         1 VGI      -0.014900
      3 Br1         -5.4940     1.8470    -0.7440 br         1 VGI      -0.099100
      4 C16         -5.0640    -0.2190     1.2190 ca         1 VGI      -0.079000
      5 C17         -4.2890    -1.1190     1.9700 ca         1 VGI      -0.107000
      6 C18         -2.8970    -1.1770     1.7820 ca         1 VGI      -0.076000
      7 C13         -2.2690    -0.3360     0.8410 ca         1 VGI       0.048600
      8 N2          -0.8420    -0.3950     0.6490 n          1 VGI      -0.306600
      9 C9          -0.0720     0.7450     0.9270 c          1 VGI       0.607600
     10 O1          -0.5890     1.7750     1.3420 o          1 VGI      -0.522000
     11 C12         -0.2660    -1.5900     0.1910 c          1 VGI       0.594600
     12 O2          -0.9570    -2.5690    -0.0670 o          1 VGI      -0.519000
     13 C8           1.2250    -1.6390     0.0050 ca         1 VGI      -0.178600
     14 C10          1.8310    -2.8310    -0.4460 ca         1 VGI      -0.006000
     15 C11          3.2180    -2.8930    -0.6330 ca         1 VGI      -0.151000
     16 C7           4.0160    -1.7710    -0.3730 ca         1 VGI      -0.048000
     17 C1           3.4290    -0.5670     0.0830 ca         1 VGI      -0.121000
     18 C2           2.0230    -0.5120     0.2680 ca         1 VGI       0.078000
     19 C3           1.4130     0.6710     0.7160 ca         1 VGI      -0.250600
     20 C4           2.2060     1.8050     0.9810 ca         1 VGI       0.051000
     21 C5           3.5930     1.7550     0.7980 ca         1 VGI      -0.262000
     22 C6           4.2130     0.5830     0.3510 ca         1 VGI       0.406000
     23 N1           5.6000     0.5790     0.1940 nu         1 VGI      -0.949200
     24 C19          6.4130     1.6770    -0.3690 c3         1 VGI       0.216800
     25 C20          7.9000     1.2480    -0.5260 c3         1 VGI       0.143600
     26 O3           8.0100    -0.0240    -1.2000 oh         1 VGI      -0.668000
     27 H14         -2.5810     1.2180    -0.6410 ha         1 VGI       0.136000
     28 H16         -6.1410    -0.1740     1.3640 ha         1 VGI       0.128000
     29 H17         -4.7670    -1.7710     2.6980 ha         1 VGI       0.118000
     30 H18         -2.3040    -1.8740     2.3700 ha         1 VGI       0.124000
     31 H10          1.2310    -3.7150    -0.6560 ha         1 VGI       0.140000
     32 H11          3.6760    -3.8150    -0.9830 ha         1 VGI       0.123000
     33 H7           5.0870    -1.8570    -0.5360 ha         1 VGI       0.107000
     34 H4           1.7540     2.7310     1.3330 ha         1 VGI       0.134000
     35 H5           4.1850     2.6370     1.0200 ha         1 VGI       0.121000
     36 H1           5.9940    -0.3400    -0.0080 hn         1 VGI       0.503000
     37 H191         6.0240     1.9610    -1.3570 h1         1 VGI       0.057200
     38 H192         6.3670     2.5660     0.2740 h1         1 VGI       0.057200
     39 H201         8.4370     2.0280    -1.0830 h1         1 VGI       0.035700
     40 H202         8.3530     1.1840     0.4720 h1         1 VGI       0.035700
     41 H3           8.9700    -0.2180    -1.2930 ho         1 VGI       0.453000
@<TRIPOS>BOND
     1     1     2 ar  
     2     1     7 ar  
     3     1    27 1   
     4     2     3 1   
     5     2     4 ar  
     6     4     5 ar  
     7     4    28 1   
     8     5     6 ar  
     9     5    29 1   
    10     6     7 ar  
    11     6    30 1   
    12     7     8 1   
    13     8     9 1   
    14     8    11 1   
    15     9    10 2   
    16     9    19 1   
    17    11    12 2   
    18    11    13 1   
    19    13    14 ar  
    20    13    18 ar  
    21    14    15 ar  
    22    14    31 1   
    23    15    16 ar  
    24    15    32 1   
    25    16    17 ar  
    26    16    33 1   
    27    17    18 ar  
    28    17    22 ar  
    29    18    19 ar  
    30    19    20 ar  
    31    20    21 ar  
    32    20    34 1   
    33    21    22 ar  
    34    21    35 1   
    35    22    23 1   
    36    23    24 1   
    37    23    36 1   
    38    24    25 1   
    39    24    37 1   
    40    24    38 1   
    41    25    26 1   
    42    25    39 1   
    43    25    40 1   
    44    26    41 1   
@<TRIPOS>SUBSTRUCTURE
     1 VGI         1 TEMP              0 ****  ****    0 ROOT
