@<TRIPOS>MOLECULE
VGI
   41    44     1     0     0
SMALL
bcc


@<TRIPOS>ATOM
      1 C14         -3.0330     0.1280    -0.1110 ca         1 VGI      -0.080000
      2 C15         -4.3920     0.1840     0.1580 ca         1 VGI      -0.014900
      3 BR1         -5.5710     0.7890    -1.1850 br         1 VGI      -0.099100
      4 C16         -4.9000    -0.1970     1.3910 ca         1 VGI      -0.097000
      5 C17         -4.0210    -0.6400     2.3700 ca         1 VGI      -0.125000
      6 C18         -2.6590    -0.7030     2.1220 ca         1 VGI      -0.094000
      7 C13         -2.1760    -0.3180     0.8820 ca         1 VGI       0.048600
      8 N2          -0.7750    -0.3830     0.6130 n          1 VGI      -0.440600
      9 C9          -0.0230     0.7680     0.8710 c          1 VGI       0.750100
     10 O1          -0.5820     1.7560     1.3070 o          1 VGI      -0.597500
     11 C12         -0.2830    -1.5820     0.1240 c          1 VGI       0.737100
     12 O2          -1.0320    -2.5180    -0.0670 o          1 VGI      -0.594500
     13 C8           1.1620    -1.6410    -0.1370 ca         1 VGI      -0.178600
     14 C10          1.7110    -2.8140    -0.6080 ca         1 VGI      -0.024000
     15 C11          3.0830    -2.8960    -0.8520 ca         1 VGI      -0.169000
     16 C7           3.8880    -1.8040    -0.6310 ca         1 VGI      -0.066000
     17 C1           3.3610    -0.5860    -0.1640 ca         1 VGI      -0.121000
     18 C2           1.9710    -0.5080     0.0970 ca         1 VGI       0.078000
     19 C3           1.3970     0.6830     0.5910 ca         1 VGI      -0.250600
     20 C4           2.2160     1.7770     0.8110 ca         1 VGI       0.033000
     21 C5           3.5760     1.7380     0.5560 ca         1 VGI      -0.280000
     22 C6           4.1850     0.5780     0.0680 ca         1 VGI       0.267600
     23 N1           5.5040     0.5270    -0.1690 nu         1 VGI      -0.755600
     24 C19          6.4050     1.6470    -0.0210 c3         1 VGI       0.216800
     25 C20          7.8400     1.1740    -0.1030 c3         1 VGI       0.120400
     26 O3           8.0360     0.5520    -1.3540 oh         1 VGI      -0.605800
     27 H14         -2.6360     0.4250    -1.0730 ha         1 VGI       0.154000
     28 H16         -5.9610    -0.1530     1.5960 ha         1 VGI       0.146000
     29 H17         -4.4080    -0.9400     3.3350 ha         1 VGI       0.136000
     30 H18         -1.9760    -1.0480     2.8880 ha         1 VGI       0.142000
     31 H10          1.0790    -3.6730    -0.7850 ha         1 VGI       0.158000
     32 H11          3.5130    -3.8200    -1.2120 ha         1 VGI       0.141000
     33 H7           4.9470    -1.9160    -0.8210 ha         1 VGI       0.125000
     34 H4           1.7870     2.6960     1.1860 ha         1 VGI       0.152000
     35 H5           4.1620     2.6280     0.7310 ha         1 VGI       0.139000
     36 H1           5.8700    -0.2440    -0.7030 hn         1 VGI       0.447800
     37 H191         6.2130     2.4130    -0.7810 h1         1 VGI       0.057200
     38 H192         6.2640     2.1160     0.9550 h1         1 VGI       0.057200
     39 H201         8.4940     2.0440     0.0310 h1         1 VGI       0.035700
     40 H202         8.0390     0.4840     0.7240 h1         1 VGI       0.035700
     41 H3           8.8650     0.0660    -1.3260 ho         1 VGI       0.414000
@<TRIPOS>BOND
     1     1     2 ar  
     2     1     7 ar  
     3     1    27 1   
     4     2     3 1   
     5     2     4 ar  
     6     4     5 ar  
     7     4    28 1   
     8     5     6 ar  
     9     5    29 1   
    10     6     7 ar  
    11     6    30 1   
    12     7     8 1   
    13     8     9 1   
    14     8    11 1   
    15     9    10 2   
    16     9    19 1   
    17    11    12 2   
    18    11    13 1   
    19    13    14 ar  
    20    13    18 ar  
    21    14    15 ar  
    22    14    31 1   
    23    15    16 ar  
    24    15    32 1   
    25    16    17 ar  
    26    16    33 1   
    27    17    18 ar  
    28    17    22 ar  
    29    18    19 ar  
    30    19    20 ar  
    31    20    21 ar  
    32    20    34 1   
    33    21    22 ar  
    34    21    35 1   
    35    22    23 1   
    36    23    24 1   
    37    23    36 1   
    38    24    25 1   
    39    24    37 1   
    40    24    38 1   
    41    25    26 1   
    42    25    39 1   
    43    25    40 1   
    44    26    41 1   
@<TRIPOS>SUBSTRUCTURE
     1 VGI         1 TEMP              0 ****  ****    0 ROOT
