@<TRIPOS>MOLECULE
VGJ
   61    60     1     0     0
SMALL
bcc


@<TRIPOS>ATOM
      1 O1           9.4420    -1.9940    -0.0320 o          1 VGJ      -0.848800
      2 C15          8.6390    -1.0410    -0.1190 c          1 VGJ       0.925600
      3 O2           8.9310     0.1720    -0.0590 o          1 VGJ      -0.848800
      4 C14          7.1650    -1.4000    -0.3770 c3         1 VGJ      -0.200400
      5 C13          6.1350    -0.4330     0.2000 c3         1 VGJ      -0.041700
      6 C16          6.1950    -0.4200     1.7240 c3         1 VGJ      -0.073100
      7 C12          4.7340    -0.7830    -0.3070 c3         1 VGJ      -0.075400
      8 C11          3.6380     0.1940     0.1030 c3         1 VGJ      -0.074400
      9 C10          2.3010    -0.1280    -0.5580 c3         1 VGJ      -0.074400
     10 C9           1.1150     0.7080    -0.0730 c3         1 VGJ      -0.057700
     11 C17          1.3170     2.1920    -0.3690 c3         1 VGJ      -0.084100
     12 C8          -0.1840     0.1760    -0.6830 c3         1 VGJ      -0.073400
     13 C7          -1.4600     0.7880    -0.1160 c3         1 VGJ      -0.074400
     14 C6          -2.7190     0.1070    -0.6410 c3         1 VGJ      -0.073400
     15 C5          -4.0270     0.6580    -0.0670 c3         1 VGJ      -0.057700
     16 C18         -4.3270     2.0590    -0.5950 c3         1 VGJ      -0.085100
     17 C4          -5.1790    -0.3110    -0.3450 c3         1 VGJ      -0.072400
     18 C3          -6.5300     0.1250     0.2120 c3         1 VGJ      -0.074400
     19 C2          -7.5940    -0.9610     0.0930 c3         1 VGJ      -0.072400
     20 C1          -8.9530    -0.5910     0.6910 c3         1 VGJ      -0.060700
     21 C19         -9.6160     0.5690    -0.0480 c3         1 VGJ      -0.086600
     22 C20         -9.8830    -1.8000     0.7070 c3         1 VGJ      -0.086600
     23 H141         7.0340    -1.4450    -1.4670 hc         1 VGJ       0.015700
     24 H142         6.9630    -2.4140    -0.0170 hc         1 VGJ       0.015700
     25 H13          6.3830     0.5710    -0.1600 hc         1 VGJ       0.059700
     26 H161         5.9220    -1.3970     2.1340 hc         1 VGJ       0.020700
     27 H162         7.1980    -0.1800     2.0760 hc         1 VGJ       0.020700
     28 H163         5.5170     0.3180     2.1570 hc         1 VGJ       0.020700
     29 H121         4.7610    -0.8370    -1.4020 hc         1 VGJ       0.024700
     30 H122         4.4670    -1.7920     0.0340 hc         1 VGJ       0.024700
     31 H111         3.5090     0.1820     1.1900 hc         1 VGJ       0.035200
     32 H112         3.9550     1.2100    -0.1560 hc         1 VGJ       0.035200
     33 H101         2.3970    -0.0160    -1.6450 hc         1 VGJ       0.032700
     34 H102         2.0760    -1.1870    -0.3840 hc         1 VGJ       0.032700
     35 H9           1.0400     0.5830     1.0160 hc         1 VGJ       0.041700
     36 H171         0.4800     2.7960    -0.0180 hc         1 VGJ       0.029700
     37 H172         2.2140     2.5810     0.1120 hc         1 VGJ       0.029700
     38 H173         1.4180     2.3580    -1.4450 hc         1 VGJ       0.029700
     39 H81C        -0.1600     0.3210    -1.7700 hc         1 VGJ       0.035200
     40 H82C        -0.2230    -0.9080    -0.5270 hc         1 VGJ       0.035200
     41 H71C        -1.4410     0.7070     0.9770 hc         1 VGJ       0.036200
     42 H72C        -1.4930     1.8590    -0.3370 hc         1 VGJ       0.036200
     43 H61C        -2.7460     0.1770    -1.7350 hc         1 VGJ       0.036700
     44 H62C        -2.6520    -0.9620    -0.4120 hc         1 VGJ       0.036700
     45 H5          -3.9070     0.7230     1.0230 hc         1 VGJ       0.043700
     46 H181        -5.1750     2.5140    -0.0840 hc         1 VGJ       0.030367
     47 H182        -3.4780     2.7310    -0.4620 hc         1 VGJ       0.030367
     48 H183        -4.5600     2.0290    -1.6620 hc         1 VGJ       0.030367
     49 H41C        -5.2670    -0.4650    -1.4270 hc         1 VGJ       0.036700
     50 H42C        -4.9200    -1.2880     0.0790 hc         1 VGJ       0.036700
     51 H31C        -6.4150     0.4000     1.2670 hc         1 VGJ       0.037700
     52 H32C        -6.8650     1.0290    -0.3030 hc         1 VGJ       0.037700
     53 H21C        -7.7280    -1.2290    -0.9620 hc         1 VGJ       0.036700
     54 H22C        -7.2280    -1.8660     0.5910 hc         1 VGJ       0.036700
     55 HA          -8.7870    -0.2800     1.7300 hc         1 VGJ       0.043700
     56 H191        -9.8150     0.3000    -1.0890 hc         1 VGJ       0.030367
     57 H192       -10.5710     0.8290     0.4120 hc         1 VGJ       0.030367
     58 H193        -8.9990     1.4680    -0.0510 hc         1 VGJ       0.030367
     59 H201        -9.4480    -2.6330     1.2630 hc         1 VGJ       0.030367
     60 H202       -10.8420    -1.5570     1.1690 hc         1 VGJ       0.030367
     61 H203       -10.0860    -2.1500    -0.3080 hc         1 VGJ       0.030367
@<TRIPOS>BOND
     1     1     2 1   
     2     2     3 1   
     3     2     4 1   
     4     4     5 1   
     5     4    23 1   
     6     4    24 1   
     7     5     6 1   
     8     5     7 1   
     9     5    25 1   
    10     6    26 1   
    11     6    27 1   
    12     6    28 1   
    13     7     8 1   
    14     7    29 1   
    15     7    30 1   
    16     8     9 1   
    17     8    31 1   
    18     8    32 1   
    19     9    10 1   
    20     9    33 1   
    21     9    34 1   
    22    10    11 1   
    23    10    12 1   
    24    10    35 1   
    25    11    36 1   
    26    11    37 1   
    27    11    38 1   
    28    12    13 1   
    29    12    39 1   
    30    12    40 1   
    31    13    14 1   
    32    13    41 1   
    33    13    42 1   
    34    14    15 1   
    35    14    43 1   
    36    14    44 1   
    37    15    16 1   
    38    15    17 1   
    39    15    45 1   
    40    16    46 1   
    41    16    47 1   
    42    16    48 1   
    43    17    18 1   
    44    17    49 1   
    45    17    50 1   
    46    18    19 1   
    47    18    51 1   
    48    18    52 1   
    49    19    20 1   
    50    19    53 1   
    51    19    54 1   
    52    20    21 1   
    53    20    22 1   
    54    20    55 1   
    55    21    56 1   
    56    21    57 1   
    57    21    58 1   
    58    22    59 1   
    59    22    60 1   
    60    22    61 1   
@<TRIPOS>SUBSTRUCTURE
     1 VGJ         1 TEMP              0 ****  ****    0 ROOT
