@<TRIPOS>MOLECULE
VGJ
   61    60     1     0     0
SMALL
No Charge or Current Charge


@<TRIPOS>ATOM
      1 O1           9.3480    -1.3880     0.9130 o          1 VGJ      -0.743500
      2 C15          8.7590    -0.9720    -0.0740 c          1 VGJ       0.715000
      3 O2           9.2490    -0.1810    -0.8660 o          1 VGJ      -0.743500
      4 C14          7.3180    -1.4580    -0.3310 c3         1 VGJ      -0.200400
      5 C13          6.2520    -0.4690     0.2340 c3         1 VGJ      -0.041700
      6 C16          6.3150    -0.3570     1.7800 c3         1 VGJ      -0.073100
      7 C12          4.8300    -0.8510    -0.2730 c3         1 VGJ      -0.075400
      8 C11          3.7130     0.1660     0.0690 c3         1 VGJ      -0.074400
      9 C10          2.3540    -0.1990    -0.5760 c3         1 VGJ      -0.074400
     10 C9           1.1580     0.7050    -0.1580 c3         1 VGJ      -0.057700
     11 C17          1.3630     2.1840    -0.5820 c3         1 VGJ      -0.084100
     12 C8          -0.1760     0.1150    -0.7010 c3         1 VGJ      -0.073400
     13 C7          -1.4620     0.8080    -0.1860 c3         1 VGJ      -0.074400
     14 C6          -2.7550     0.0960    -0.6550 c3         1 VGJ      -0.073400
     15 C5          -4.0770     0.6660    -0.0640 c3         1 VGJ      -0.057700
     16 C18         -4.3200     2.1410    -0.4800 c3         1 VGJ      -0.085100
     17 C4          -5.2730    -0.2570    -0.4380 c3         1 VGJ      -0.072400
     18 C3          -6.6140     0.0860     0.2570 c3         1 VGJ      -0.074400
     19 C2          -7.7290    -0.9430    -0.0500 c3         1 VGJ      -0.072400
     20 C1          -9.0650    -0.7040     0.7050 c3         1 VGJ      -0.060700
     21 C19         -9.7290     0.6490     0.3480 c3         1 VGJ      -0.086600
     22 C20        -10.0480    -1.8730     0.4700 c3         1 VGJ      -0.086600
     23 H141         7.1410    -1.4810    -1.4140 hc         1 VGJ       0.015700
     24 H142         7.1410    -2.4240     0.1580 hc         1 VGJ       0.015700
     25 H13          6.4830     0.5240    -0.1730 hc         1 VGJ       0.059700
     26 H161         6.0630    -1.3150     2.2520 hc         1 VGJ       0.020700
     27 H162         7.3150    -0.0610     2.1160 hc         1 VGJ       0.020700
     28 H163         5.6200     0.4040     2.1530 hc         1 VGJ       0.020700
     29 H121         4.8630    -0.9620    -1.3640 hc         1 VGJ       0.024700
     30 H122         4.5550    -1.8340     0.1310 hc         1 VGJ       0.024700
     31 H111         3.5800     0.2190     1.1560 hc         1 VGJ       0.035200
     32 H112         4.0300     1.1590    -0.2710 hc         1 VGJ       0.035200
     33 H101         2.4570    -0.1790    -1.6680 hc         1 VGJ       0.032700
     34 H102         2.1190    -1.2360    -0.3060 hc         1 VGJ       0.032700
     35 H9           1.1010     0.6830     0.9380 hc         1 VGJ       0.041700
     36 H171         0.5410     2.8170    -0.2320 hc         1 VGJ       0.029700
     37 H172         2.2810     2.5980    -0.1520 hc         1 VGJ       0.029700
     38 H173         1.4250     2.2710    -1.6740 hc         1 VGJ       0.029700
     39 H81C        -0.1660     0.1480    -1.7980 hc         1 VGJ       0.035200
     40 H82C        -0.2270    -0.9450    -0.4230 hc         1 VGJ       0.035200
     41 H71C        -1.4420     0.8350     0.9110 hc         1 VGJ       0.036200
     42 H72C        -1.4760     1.8440    -0.5390 hc         1 VGJ       0.036200
     43 H61C        -2.8050     0.1290    -1.7510 hc         1 VGJ       0.036700
     44 H62C        -2.6780    -0.9630    -0.3800 hc         1 VGJ       0.036700
     45 H5          -3.9800     0.6450     1.0290 hc         1 VGJ       0.043700
     46 H181        -5.2260     2.5430    -0.0140 hc         1 VGJ       0.030367
     47 H182        -3.4940     2.7860    -0.1620 hc         1 VGJ       0.030367
     48 H183        -4.4250     2.2270    -1.5680 hc         1 VGJ       0.030367
     49 H41C        -5.4180    -0.2380    -1.5260 hc         1 VGJ       0.036700
     50 H42C        -5.0120    -1.2900    -0.1790 hc         1 VGJ       0.036700
     51 H31C        -6.4560     0.1340     1.3420 hc         1 VGJ       0.037700
     52 H32C        -6.9450     1.0780    -0.0690 hc         1 VGJ       0.037700
     53 H21C        -7.9210    -0.9520    -1.1310 hc         1 VGJ       0.036700
     54 H22C        -7.3570    -1.9420     0.2080 hc         1 VGJ       0.036700
     55 HA          -8.8410    -0.6850     1.7800 hc         1 VGJ       0.043700
     56 H191        -9.9100     0.7220    -0.7310 hc         1 VGJ       0.030367
     57 H192       -10.6910     0.7540     0.8640 hc         1 VGJ       0.030367
     58 H193        -9.1000     1.4930     0.6530 hc         1 VGJ       0.030367
     59 H201        -9.6010    -2.8250     0.7790 hc         1 VGJ       0.030367
     60 H202       -10.9680    -1.7300     1.0500 hc         1 VGJ       0.030367
     61 H203       -10.3190    -1.9490    -0.5900 hc         1 VGJ       0.030367
@<TRIPOS>BOND
     1     1     2 1   
     2     2     3 1   
     3     2     4 1   
     4     4     5 1   
     5     4    23 1   
     6     4    24 1   
     7     5     6 1   
     8     5     7 1   
     9     5    25 1   
    10     6    26 1   
    11     6    27 1   
    12     6    28 1   
    13     7     8 1   
    14     7    29 1   
    15     7    30 1   
    16     8     9 1   
    17     8    31 1   
    18     8    32 1   
    19     9    10 1   
    20     9    33 1   
    21     9    34 1   
    22    10    11 1   
    23    10    12 1   
    24    10    35 1   
    25    11    36 1   
    26    11    37 1   
    27    11    38 1   
    28    12    13 1   
    29    12    39 1   
    30    12    40 1   
    31    13    14 1   
    32    13    41 1   
    33    13    42 1   
    34    14    15 1   
    35    14    43 1   
    36    14    44 1   
    37    15    16 1   
    38    15    17 1   
    39    15    45 1   
    40    16    46 1   
    41    16    47 1   
    42    16    48 1   
    43    17    18 1   
    44    17    49 1   
    45    17    50 1   
    46    18    19 1   
    47    18    51 1   
    48    18    52 1   
    49    19    20 1   
    50    19    53 1   
    51    19    54 1   
    52    20    21 1   
    53    20    22 1   
    54    20    55 1   
    55    21    56 1   
    56    21    57 1   
    57    21    58 1   
    58    22    59 1   
    59    22    60 1   
    60    22    61 1   
@<TRIPOS>SUBSTRUCTURE
     1 VGJ         1 TEMP              0 ****  ****    0 ROOT
