@<TRIPOS>MOLECULE
VGK
   47    49     1     0     0
SMALL
abcg2


@<TRIPOS>ATOM
      1 C01          5.6080     2.2200    -1.1790 c3         1 VGK       0.146400
      2 O02          5.5730     0.8440    -0.8560 os         1 VGK      -0.330600
      3 C03          4.4170     0.3170    -0.4190 ca         1 VGK       0.157100
      4 C04          3.2300     1.0320    -0.2830 ca         1 VGK      -0.226500
      5 C05          2.0790     0.3940     0.1750 cp         1 VGK       0.075000
      6 C06          0.8240     1.1500     0.3230 cp         1 VGK      -0.167000
      7 C07          0.8080     2.4780     0.7280 ca         1 VGK       0.386900
      8 N08         -0.2910     3.2050     0.8590 nb         1 VGK      -0.766000
      9 C09         -1.4760     2.6530     0.6090 ca         1 VGK       0.604900
     10 N10         -2.5650     3.4560     0.7640 nv         1 VGK      -1.046900
     11 C11         -1.5960     1.2950     0.2240 cp         1 VGK      -0.105000
     12 C12         -2.9020     0.6580    -0.0460 cp         1 VGK      -0.093000
     13 C13         -3.9400     0.6990     0.8870 ca         1 VGK      -0.130500
     14 C14         -5.1430     0.0570     0.6350 ca         1 VGK      -0.092500
     15 C15         -5.3540    -0.6400    -0.5520 ca         1 VGK      -0.120600
     16 C16         -6.6790    -1.3410    -0.8260 c          1 VGK       0.711600
     17 O17         -7.5390    -1.2790     0.0730 o          1 VGK      -0.716500
     18 O18         -6.7870    -1.9170    -1.9250 o          1 VGK      -0.716500
     19 C19         -4.3180    -0.6790    -1.4810 ca         1 VGK      -0.092500
     20 C20         -3.1110    -0.0420    -1.2340 ca         1 VGK      -0.130500
     21 C21         -0.4260     0.5760     0.0770 ca         1 VGK      -0.029000
     22 C22          2.1140    -0.9640     0.4870 ca         1 VGK      -0.226500
     23 C23          3.2960    -1.6840     0.3390 ca         1 VGK       0.157100
     24 O24          3.4260    -2.9930     0.6120 os         1 VGK      -0.330600
     25 C25          2.2800    -3.7160     1.0180 c3         1 VGK       0.146400
     26 C26          4.4520    -1.0480    -0.1210 ca         1 VGK       0.009100
     27 O27          5.5980    -1.7570    -0.2970 os         1 VGK      -0.329100
     28 C28          6.4490    -1.7880     0.8410 c3         1 VGK       0.149900
     29 H011         6.6240     2.4340    -1.5010 h1         1 VGK       0.040700
     30 H012         4.9230     2.4670    -1.9940 h1         1 VGK       0.040700
     31 H013         5.3720     2.8490    -0.3180 h1         1 VGK       0.040700
     32 H04          3.1860     2.0770    -0.5550 ha         1 VGK       0.124500
     33 H22          1.2250    -1.4420     0.8730 ha         1 VGK       0.124500
     34 H07          1.7360     2.9840     0.9750 h4         1 VGK       0.005100
     35 H21         -0.4920    -0.4590    -0.2390 ha         1 VGK       0.124000
     36 H101        -2.3760     4.4450     0.7810 hn         1 VGK       0.475000
     37 H102        -3.4110     3.2070     0.2790 hn         1 VGK       0.475000
     38 H13         -3.8030     1.2190     1.8270 ha         1 VGK       0.094000
     39 H20         -2.3260    -0.0790    -1.9790 ha         1 VGK       0.094000
     40 H14         -5.9290     0.0940     1.3770 ha         1 VGK       0.130000
     41 H19         -4.4570    -1.2120    -2.4130 ha         1 VGK       0.130000
     42 H251         1.4820    -3.6690     0.2720 h1         1 VGK       0.040700
     43 H252         2.5940    -4.7510     1.1310 h1         1 VGK       0.040700
     44 H253         1.8880    -3.3620     1.9750 h1         1 VGK       0.040700
     45 H281         7.3110    -2.3990     0.5810 h1         1 VGK       0.028700
     46 H282         6.7980    -0.7890     1.1130 h1         1 VGK       0.028700
     47 H283         5.9530    -2.2350     1.7060 h1         1 VGK       0.028700
@<TRIPOS>BOND
     1     1     2 1   
     2     1    29 1   
     3     1    30 1   
     4     1    31 1   
     5     2     3 1   
     6     3     4 ar  
     7     3    26 ar  
     8     4     5 ar  
     9     4    32 1   
    10     5     6 1   
    11     5    22 ar  
    12     6     7 ar  
    13     6    21 ar  
    14     7     8 ar  
    15     7    34 1   
    16     8     9 ar  
    17     9    10 1   
    18     9    11 ar  
    19    10    36 1   
    20    10    37 1   
    21    11    12 1   
    22    11    21 ar  
    23    12    13 ar  
    24    12    20 ar  
    25    13    14 ar  
    26    13    38 1   
    27    14    15 ar  
    28    14    40 1   
    29    15    16 1   
    30    15    19 ar  
    31    16    17 1   
    32    16    18 1   
    33    19    20 ar  
    34    19    41 1   
    35    20    39 1   
    36    21    35 1   
    37    22    23 ar  
    38    22    33 1   
    39    23    24 1   
    40    23    26 ar  
    41    24    25 1   
    42    25    42 1   
    43    25    43 1   
    44    25    44 1   
    45    26    27 1   
    46    27    28 1   
    47    28    45 1   
    48    28    46 1   
    49    28    47 1   
@<TRIPOS>SUBSTRUCTURE
     1 VGK         1 TEMP              0 ****  ****    0 ROOT
