@<TRIPOS>MOLECULE
VGK
   47    49     1     0     0
SMALL
No Charge or Current Charge


@<TRIPOS>ATOM
      1 C01          5.6350     2.5860    -1.2290 c3         1 VGK       0.146400
      2 O02          5.6460     1.2150    -0.7920 os         1 VGK      -0.330600
      3 C03          4.5160     0.5710    -0.3100 ca         1 VGK       0.157100
      4 C04          3.2740     1.2340    -0.2260 ca         1 VGK      -0.226500
      5 C05          2.1260     0.5780     0.2610 cp         1 VGK       0.075000
      6 C06          0.8120     1.2880     0.3460 cp         1 VGK      -0.167000
      7 C07          0.7380     2.6660     0.6710 ca         1 VGK       0.386900
      8 N08         -0.4170     3.3620     0.7620 nb         1 VGK      -0.766000
      9 C09         -1.5410     2.6930     0.5400 ca         1 VGK       0.604900
     10 N10         -2.5730     3.5420     0.6220 nv         1 VGK      -1.046900
     11 C11         -1.6380     1.3160     0.2030 cp         1 VGK      -0.105000
     12 C12         -2.9350     0.6130    -0.0610 cp         1 VGK      -0.093000
     13 C13         -4.0490     0.7630     0.7970 ca         1 VGK      -0.130500
     14 C14         -5.2590     0.0910     0.5470 ca         1 VGK      -0.092500
     15 C15         -5.3940    -0.7610    -0.5740 ca         1 VGK      -0.120600
     16 C16         -6.7020    -1.4890    -0.8480 c          1 VGK       0.711600
     17 O17         -7.6390    -1.3200    -0.0800 o          1 VGK      -0.716500
     18 O18         -6.7730    -2.2190    -1.8280 o          1 VGK      -0.716500
     19 C19         -4.2800    -0.9210    -1.4310 ca         1 VGK      -0.092500
     20 C20         -3.0730    -0.2480    -1.1750 ca         1 VGK      -0.130500
     21 C21         -0.4130     0.6190     0.1070 ca         1 VGK      -0.029000
     22 C22          2.2520    -0.7680     0.6660 ca         1 VGK      -0.226500
     23 C23          3.4830    -1.4590     0.5930 ca         1 VGK       0.157100
     24 O24          3.5630    -2.7800     1.0050 os         1 VGK      -0.330600
     25 C25          2.4370    -3.5220     1.5070 c3         1 VGK       0.146400
     26 C26          4.6370    -0.7790     0.0960 ca         1 VGK       0.009100
     27 O27          5.9060    -1.3500    -0.0250 os         1 VGK      -0.329100
     28 C28          6.2430    -2.7040     0.3270 c3         1 VGK       0.149900
     29 H011         6.6360     2.8840    -1.5650 h1         1 VGK       0.040700
     30 H012         4.9400     2.7230    -2.0670 h1         1 VGK       0.040700
     31 H013         5.3380     3.2540    -0.4100 h1         1 VGK       0.040700
     32 H04          3.1790     2.2640    -0.5520 ha         1 VGK       0.124500
     33 H22          1.3690    -1.2610     1.0560 ha         1 VGK       0.124500
     34 H07          1.6440     3.2350     0.8740 h4         1 VGK       0.005100
     35 H21         -0.4170    -0.4360    -0.1570 ha         1 VGK       0.124000
     36 H101        -2.3160     4.5200     0.5820 hn         1 VGK       0.475000
     37 H102        -3.4280     3.2710     0.1520 hn         1 VGK       0.475000
     38 H13         -3.9730     1.3960     1.6780 ha         1 VGK       0.094000
     39 H20         -2.2370    -0.3890    -1.8550 ha         1 VGK       0.094000
     40 H14         -6.0920     0.2330     1.2320 ha         1 VGK       0.130000
     41 H19         -4.3470    -1.5710    -2.3010 ha         1 VGK       0.130000
     42 H251         1.6420    -3.5840     0.7530 h1         1 VGK       0.040700
     43 H252         2.7420    -4.5440     1.7630 h1         1 VGK       0.040700
     44 H253         2.0320    -3.0520     2.4120 h1         1 VGK       0.040700
     45 H281         7.3060    -2.8900     0.1290 h1         1 VGK       0.028700
     46 H282         6.0640    -2.8890     1.3930 h1         1 VGK       0.028700
     47 H283         5.6620    -3.4200    -0.2690 h1         1 VGK       0.028700
@<TRIPOS>BOND
     1     1     2 1   
     2     1    29 1   
     3     1    30 1   
     4     1    31 1   
     5     2     3 1   
     6     3     4 ar  
     7     3    26 ar  
     8     4     5 ar  
     9     4    32 1   
    10     5     6 1   
    11     5    22 ar  
    12     6     7 ar  
    13     6    21 ar  
    14     7     8 ar  
    15     7    34 1   
    16     8     9 ar  
    17     9    10 1   
    18     9    11 ar  
    19    10    36 1   
    20    10    37 1   
    21    11    12 1   
    22    11    21 ar  
    23    12    13 ar  
    24    12    20 ar  
    25    13    14 ar  
    26    13    38 1   
    27    14    15 ar  
    28    14    40 1   
    29    15    16 1   
    30    15    19 ar  
    31    16    17 1   
    32    16    18 1   
    33    19    20 ar  
    34    19    41 1   
    35    20    39 1   
    36    21    35 1   
    37    22    23 ar  
    38    22    33 1   
    39    23    24 1   
    40    23    26 ar  
    41    24    25 1   
    42    25    42 1   
    43    25    43 1   
    44    25    44 1   
    45    26    27 1   
    46    27    28 1   
    47    28    45 1   
    48    28    46 1   
    49    28    47 1   
@<TRIPOS>SUBSTRUCTURE
     1 VGK         1 TEMP              0 ****  ****    0 ROOT
