@<TRIPOS>MOLECULE
VGL
   12    12     1     0     0
SMALL
bcc


@<TRIPOS>ATOM
      1 C1          -0.1630    -0.0580    -0.0030 ca         1 VGL       0.248500
      2 C3           1.7470    -1.2820    -0.0320 ca         1 VGL       0.255900
      3 C4           2.5060    -0.1220    -0.0480 ca         1 VGL       0.235900
      4 C2          -1.6900     0.0180     0.0270 c          1 VGL       0.827100
      5 C6           0.6110     1.1030    -0.0210 ca         1 VGL       0.293900
      6 O1          -2.1660     1.1680     0.0190 o          1 VGL      -0.802800
      7 O2          -2.2970    -1.0620     0.0560 o          1 VGL      -0.802800
      8 N2           0.4220    -1.2510    -0.0090 nb         1 VGL      -0.611000
      9 N5           1.9360     1.0760    -0.0430 nb         1 VGL      -0.677000
     10 H6           0.1360     2.0760    -0.0180 h4         1 VGL       0.041100
     11 H3           2.2260    -2.2550    -0.0370 h4         1 VGL      -0.002900
     12 H4           3.5890    -0.1670    -0.0660 h4         1 VGL      -0.005900
@<TRIPOS>BOND
     1     1     4 1   
     2     1     5 ar  
     3     1     8 ar  
     4     2     3 ar  
     5     2     8 ar  
     6     2    11 1   
     7     3     9 ar  
     8     3    12 1   
     9     4     6 1   
    10     4     7 1   
    11     5     9 ar  
    12     5    10 1   
@<TRIPOS>SUBSTRUCTURE
     1 VGL         1 TEMP              0 ****  ****    0 ROOT
