@<TRIPOS>MOLECULE
VGL
   12    12     1     0     0
SMALL
No Charge or Current Charge


@<TRIPOS>ATOM
      1 C1          -0.1790    -0.0840    -0.0010 ca         1 VGL       0.248500
      2 C3           1.7900    -1.3180    -0.0300 ca         1 VGL       0.255900
      3 C4           2.5460    -0.1180    -0.0510 ca         1 VGL       0.235900
      4 C2          -1.7140     0.0360     0.0270 c          1 VGL       0.616500
      5 C6           0.5980     1.1100    -0.0220 ca         1 VGL       0.293900
      6 O1          -2.2210     1.1530     0.0300 o          1 VGL      -0.697500
      7 O2          -2.3980    -0.9840     0.0450 o          1 VGL      -0.697500
      8 N2           0.4310    -1.3220    -0.0050 nb         1 VGL      -0.611000
      9 N5           1.9630     1.1110    -0.0470 nb         1 VGL      -0.677000
     10 H6           0.1250     2.0920    -0.0180 h4         1 VGL       0.041100
     11 H3           2.2810    -2.2910    -0.0340 h4         1 VGL      -0.002900
     12 H4           3.6350    -0.1410    -0.0710 h4         1 VGL      -0.005900
@<TRIPOS>BOND
     1     1     4 1   
     2     1     5 ar  
     3     1     8 ar  
     4     2     3 ar  
     5     2     8 ar  
     6     2    11 1   
     7     3     9 ar  
     8     3    12 1   
     9     4     6 1   
    10     4     7 1   
    11     5     9 ar  
    12     5    10 1   
@<TRIPOS>SUBSTRUCTURE
     1 VGL         1 TEMP              0 ****  ****    0 ROOT
