@<TRIPOS>MOLECULE
VGM
   42    44     1     0     0
SMALL
No Charge or Current Charge


@<TRIPOS>ATOM
      1 C01          6.3830     1.1780    -1.2290 c3         1 VGM       0.156900
      2 O02          6.2060    -0.1090    -0.6070 os         1 VGM      -0.368100
      3 C03          4.9920    -0.5150    -0.0760 ca         1 VGM       0.049100
      4 C04          3.8380     0.3000    -0.1090 ca         1 VGM      -0.148000
      5 C05          2.6090    -0.1490     0.4410 cp         1 VGM      -0.023000
      6 C06          1.3880     0.7160     0.4070 cp         1 VGM      -0.137000
      7 C07          1.4740     2.1290     0.5170 ca         1 VGM       0.400900
      8 N08          0.4060     2.9590     0.4910 nb         1 VGM      -0.748000
      9 C09         -0.7880     2.3980     0.3650 ca         1 VGM       0.610900
     10 N10         -1.7180     3.3570     0.3070 nv         1 VGM      -1.047900
     11 C11         -1.0430     1.0090     0.2430 cp         1 VGM      -0.160000
     12 C12         -2.4140     0.4320     0.0850 cp         1 VGM      -0.008000
     13 C13         -3.4850     0.8270     0.9200 ca         1 VGM      -0.116000
     14 C14         -4.7670     0.2700     0.7720 ca         1 VGM      -0.072500
     15 C15         -5.0210    -0.7070    -0.2170 ca         1 VGM      -0.152600
     16 C16         -6.4130    -1.2880    -0.3530 c          1 VGM       0.616700
     17 N17         -6.6290    -2.2220    -1.3050 nt         1 VGM      -0.603000
     18 O18         -7.3430    -0.9480     0.3600 o          1 VGM      -0.602100
     19 C19         -3.9520    -1.1140    -1.0500 ca         1 VGM      -0.072500
     20 C20         -2.6720    -0.5530    -0.8960 ca         1 VGM      -0.116000
     21 C21          0.0920     0.1670     0.2640 ca         1 VGM      -0.019000
     22 C22          2.5730    -1.4400     1.0260 ca         1 VGM      -0.098000
     23 C23          3.7170    -2.2540     1.0620 ca         1 VGM      -0.123000
     24 C24          4.9220    -1.7930     0.5130 ca         1 VGM       0.122100
     25 O25          6.0330    -2.5850     0.5480 oh         1 VGM      -0.533100
     26 H011         7.4180     1.2940    -1.5750 h1         1 VGM       0.042367
     27 H012         5.7200     1.2880    -2.0960 h1         1 VGM       0.042367
     28 H013         6.1710     1.9880    -0.5180 h1         1 VGM       0.042367
     29 H04          3.8740     1.2810    -0.5720 ha         1 VGM       0.118000
     30 H22          1.6530    -1.8110     1.4710 ha         1 VGM       0.118000
     31 H07          2.4410     2.6140     0.6400 h4         1 VGM       0.019100
     32 H21         -0.0380    -0.9080     0.1650 ha         1 VGM       0.121000
     33 H101        -1.3500     4.2850     0.1400 hn         1 VGM       0.474500
     34 H102        -2.5910     3.1240    -0.1510 hn         1 VGM       0.474500
     35 H13         -3.3180     1.5630     1.7030 ha         1 VGM       0.125000
     36 H20         -1.8700    -0.8800    -1.5530 ha         1 VGM       0.125000
     37 H14         -5.5640     0.6000     1.4350 ha         1 VGM       0.125000
     38 H19         -4.0960    -1.8630    -1.8240 ha         1 VGM       0.125000
     39 H171        -5.8770    -2.5190    -1.9060 hn         1 VGM       0.314000
     40 H172        -7.5520    -2.6160    -1.4050 hn         1 VGM       0.314000
     41 H23          3.6700    -3.2400     1.5180 ha         1 VGM       0.131000
     42 H25          6.7520    -2.0720     0.1140 ho         1 VGM       0.482000
@<TRIPOS>BOND
     1     1     2 1   
     2     1    26 1   
     3     1    27 1   
     4     1    28 1   
     5     2     3 1   
     6     3     4 ar  
     7     3    24 ar  
     8     4     5 ar  
     9     4    29 1   
    10     5     6 1   
    11     5    22 ar  
    12     6     7 ar  
    13     6    21 ar  
    14     7     8 ar  
    15     7    31 1   
    16     8     9 ar  
    17     9    10 1   
    18     9    11 ar  
    19    10    33 1   
    20    10    34 1   
    21    11    12 1   
    22    11    21 ar  
    23    12    13 ar  
    24    12    20 ar  
    25    13    14 ar  
    26    13    35 1   
    27    14    15 ar  
    28    14    37 1   
    29    15    16 1   
    30    15    19 ar  
    31    16    17 1   
    32    16    18 2   
    33    17    39 1   
    34    17    40 1   
    35    19    20 ar  
    36    19    38 1   
    37    20    36 1   
    38    21    32 1   
    39    22    23 ar  
    40    22    30 1   
    41    23    24 ar  
    42    23    41 1   
    43    24    25 1   
    44    25    42 1   
@<TRIPOS>SUBSTRUCTURE
     1 VGM         1 TEMP              0 ****  ****    0 ROOT
