@<TRIPOS>MOLECULE
VGM
   42    44     1     0     0
SMALL
bcc


@<TRIPOS>ATOM
      1 C01          6.2430     1.0690    -1.2370 c3         1 VGM       0.133700
      2 O02          6.0790    -0.2050    -0.6440 os         1 VGM      -0.344900
      3 C03          4.8790    -0.5210    -0.1130 ca         1 VGM       0.049100
      4 C04          3.7610     0.2960    -0.1190 ca         1 VGM      -0.166000
      5 C05          2.5560    -0.1300     0.4540 cp         1 VGM      -0.023000
      6 C06          1.3740     0.7480     0.4350 cp         1 VGM      -0.202300
      7 C07          1.4690     2.1220     0.6160 ca         1 VGM       0.466200
      8 N08          0.4370     2.9510     0.5910 nb         1 VGM      -0.748000
      9 C09         -0.7870     2.4690     0.4000 ca         1 VGM       0.676200
     10 N10         -1.8040     3.3780     0.3900 nv         1 VGM      -0.937500
     11 C11         -1.0200     1.0820     0.2400 cp         1 VGM      -0.225300
     12 C12         -2.3690     0.5170     0.0410 cp         1 VGM      -0.008000
     13 C13         -3.4260     0.8220     0.9020 ca         1 VGM      -0.134000
     14 C14         -4.6730     0.2470     0.7230 ca         1 VGM      -0.090500
     15 C15         -4.8960    -0.6620    -0.3070 ca         1 VGM      -0.152600
     16 C16         -6.2640    -1.2480    -0.4540 c          1 VGM       0.683700
     17 N17         -6.3400    -2.4170    -1.1090 nt         1 VGM      -0.670000
     18 O18         -7.2460    -0.6780     0.0020 o          1 VGM      -0.602100
     19 C19         -3.8480    -0.9630    -1.1740 ca         1 VGM      -0.090500
     20 C20         -2.6040    -0.3780    -1.0030 ca         1 VGM      -0.134000
     21 C21          0.0840     0.2500     0.2480 ca         1 VGM      -0.037000
     22 C22          2.5040    -1.3950     1.0270 ca         1 VGM      -0.116000
     23 C23          3.6210    -2.2210     1.0310 ca         1 VGM      -0.141000
     24 C24          4.8120    -1.7990     0.4670 ca         1 VGM       0.122100
     25 O25          5.8800    -2.6220     0.4820 oh         1 VGM      -0.494100
     26 H011         7.2710     1.1180    -1.5850 h1         1 VGM       0.042367
     27 H012         5.5740     1.2090    -2.0880 h1         1 VGM       0.042367
     28 H013         6.0720     1.8730    -0.5160 h1         1 VGM       0.042367
     29 H04          3.8030     1.2670    -0.5940 ha         1 VGM       0.136000
     30 H22          1.5930    -1.7460     1.4960 ha         1 VGM       0.136000
     31 H07          2.4360     2.5800     0.8030 h4         1 VGM       0.019100
     32 H21         -0.0650    -0.8150     0.1060 ha         1 VGM       0.139000
     33 H101        -1.5200     4.3370     0.2660 hn         1 VGM       0.419300
     34 H102        -2.6500     3.1380    -0.1010 hn         1 VGM       0.419300
     35 H13         -3.2720     1.5010     1.7300 ha         1 VGM       0.143000
     36 H20         -1.8090    -0.6090    -1.7010 ha         1 VGM       0.143000
     37 H14         -5.4750     0.4970     1.4050 ha         1 VGM       0.143000
     38 H19         -3.9900    -1.6350    -2.0110 ha         1 VGM       0.143000
     39 H171        -5.5270    -2.9580    -1.3440 hn         1 VGM       0.314000
     40 H172        -7.2340    -2.8680    -1.2180 hn         1 VGM       0.314000
     41 H23          3.5720    -3.2030     1.4860 ha         1 VGM       0.149000
     42 H25          6.6290    -2.2060     0.0380 ho         1 VGM       0.443000
@<TRIPOS>BOND
     1     1     2 1   
     2     1    26 1   
     3     1    27 1   
     4     1    28 1   
     5     2     3 1   
     6     3     4 ar  
     7     3    24 ar  
     8     4     5 ar  
     9     4    29 1   
    10     5     6 1   
    11     5    22 ar  
    12     6     7 ar  
    13     6    21 ar  
    14     7     8 ar  
    15     7    31 1   
    16     8     9 ar  
    17     9    10 1   
    18     9    11 ar  
    19    10    33 1   
    20    10    34 1   
    21    11    12 1   
    22    11    21 ar  
    23    12    13 ar  
    24    12    20 ar  
    25    13    14 ar  
    26    13    35 1   
    27    14    15 ar  
    28    14    37 1   
    29    15    16 1   
    30    15    19 ar  
    31    16    17 1   
    32    16    18 2   
    33    17    39 1   
    34    17    40 1   
    35    19    20 ar  
    36    19    38 1   
    37    20    36 1   
    38    21    32 1   
    39    22    23 ar  
    40    22    30 1   
    41    23    24 ar  
    42    23    41 1   
    43    24    25 1   
    44    25    42 1   
@<TRIPOS>SUBSTRUCTURE
     1 VGM         1 TEMP              0 ****  ****    0 ROOT
