@<TRIPOS>MOLECULE
VGN
   41    43     1     0     0
SMALL
No Charge or Current Charge


@<TRIPOS>ATOM
      1 CB           2.7930    -1.5320     0.5000 ca         1 VGN      -0.183000
      2 CG           1.3920    -1.4630     0.4980 ca         1 VGN      -0.080000
      3 C16         -3.6480    -0.0980     0.0270 cp         1 VGN      -0.073000
      4 O1           4.7680     2.1990    -0.4350 o          1 VGN      -0.708000
      5 C22         -7.3200    -0.7410    -0.8750 ca         1 VGN      -0.115000
      6 C9          -1.5670    -1.3800    -0.2410 ca         1 VGN      -0.116000
      7 C19         -5.9160    -0.8090    -0.8720 ca         1 VGN      -0.105500
      8 C17         -5.1450    -0.0260     0.0250 cp         1 VGN      -0.007000
      9 C8          -1.4540     0.9770     0.3030 ca         1 VGN      -0.116000
     10 C12         -2.8580     1.0450     0.3020 ca         1 VGN      -0.099000
     11 C18         -5.8390     0.8280     0.9200 ca         1 VGN      -0.105500
     12 C6           3.5740    -0.4530     0.0350 ca         1 VGN       0.021000
     13 C3           0.7190    -0.3110     0.0340 cp         1 VGN      -0.126000
     14 C4           2.9220     0.7220    -0.4260 ca         1 VGN      -0.206600
     15 O2           3.1810     2.5930    -1.8300 o          1 VGN      -0.708000
     16 C13         -2.9710    -1.3120    -0.2440 ca         1 VGN      -0.099000
     17 C5           3.6880     1.9270    -0.9390 c          1 VGN       0.725600
     18 C2           1.5080     0.7720    -0.4240 ca         1 VGN      -0.041000
     19 C21         -7.9840     0.1120     0.0200 ca         1 VGN      -0.123000
     20 C23         -0.7780    -0.2370     0.0320 cp         1 VGN       0.026000
     21 C20         -7.2440     0.8960     0.9180 ca         1 VGN      -0.115000
     22 N10          4.9950    -0.5060     0.0280 ns         1 VGN      -0.163000
     23 C1           7.3630    -1.0930     0.1480 c3         1 VGN      -0.176100
     24 C14          5.9030    -1.5410     0.1780 c          1 VGN       0.605100
     25 O15          5.6010    -2.7230     0.3110 o          1 VGN      -0.646100
     26 HB           3.2560    -2.4360     0.8840 ha         1 VGN       0.133000
     27 HG           0.8240    -2.3100     0.8760 ha         1 VGN       0.090000
     28 H12         -3.3350     2.0000     0.5050 ha         1 VGN       0.103000
     29 H13         -3.5380    -2.2170    -0.4490 ha         1 VGN       0.103000
     30 H21         -9.0710     0.1640     0.0190 ha         1 VGN       0.103000
     31 H9          -1.0870    -2.3290    -0.4630 ha         1 VGN       0.120000
     32 H18         -5.2860     1.4340     1.6320 ha         1 VGN       0.115000
     33 H8          -0.8860     1.8760     0.5290 ha         1 VGN       0.120000
     34 H20         -7.7570     1.5550     1.6150 ha         1 VGN       0.104500
     35 H10          5.4250     0.4030    -0.1010 hn         1 VGN       0.231000
     36 H2           1.0110     1.6660    -0.7930 ha         1 VGN       0.133000
     37 H11C         7.5180    -0.3280     0.9180 hc         1 VGN       0.053033
     38 H12C         8.0650    -1.9270     0.2600 hc         1 VGN       0.053033
     39 H13C         7.5460    -0.5320    -0.7760 hc         1 VGN       0.053033
     40 H22         -7.8920    -1.3480    -1.5740 ha         1 VGN       0.104500
     41 H19         -5.4210    -1.4650    -1.5830 ha         1 VGN       0.115000
@<TRIPOS>BOND
     1     1     2 ar  
     2     1    12 ar  
     3     1    26 1   
     4     2    13 ar  
     5     2    27 1   
     6     3     8 1   
     7     3    10 ar  
     8     3    16 ar  
     9     4    17 1   
    10     5     7 ar  
    11     5    19 ar  
    12     5    40 1   
    13     6    16 ar  
    14     6    20 ar  
    15     6    31 1   
    16     7     8 ar  
    17     7    41 1   
    18     8    11 ar  
    19     9    10 ar  
    20     9    20 ar  
    21     9    33 1   
    22    10    28 1   
    23    11    21 ar  
    24    11    32 1   
    25    12    14 ar  
    26    12    22 1   
    27    13    18 ar  
    28    13    20 1   
    29    14    17 1   
    30    14    18 ar  
    31    15    17 1   
    32    16    29 1   
    33    18    36 1   
    34    19    21 ar  
    35    19    30 1   
    36    21    34 1   
    37    22    24 1   
    38    22    35 1   
    39    23    24 1   
    40    23    37 1   
    41    23    38 1   
    42    23    39 1   
    43    24    25 2   
@<TRIPOS>SUBSTRUCTURE
     1 VGN         1 TEMP              0 ****  ****    0 ROOT
