@<TRIPOS>MOLECULE
VGN
   41    43     1     0     0
SMALL
bcc


@<TRIPOS>ATOM
      1 CB           2.7510    -1.5390     0.4700 ca         1 VGN      -0.201000
      2 CG           1.3710    -1.4630     0.4740 ca         1 VGN      -0.098000
      3 C16         -3.5950    -0.1040     0.0250 cp         1 VGN      -0.073000
      4 O1           4.8620     1.8850    -1.0230 o          1 VGN      -0.813300
      5 C22         -7.2080    -0.7140    -0.8790 ca         1 VGN      -0.133000
      6 C9          -1.5530    -1.3820    -0.2220 ca         1 VGN      -0.134000
      7 C19         -5.8220    -0.7830    -0.8770 ca         1 VGN      -0.123500
      8 C17         -5.0690    -0.0290     0.0250 cp         1 VGN      -0.007000
      9 C8          -1.4300     0.9540     0.2650 ca         1 VGN      -0.134000
     10 C12         -2.8130     1.0260     0.2680 ca         1 VGN      -0.117000
     11 C18         -5.7450     0.7970     0.9250 ca         1 VGN      -0.123500
     12 C6           3.5230    -0.4710     0.0000 ca         1 VGN       0.113600
     13 C3           0.7030    -0.3290     0.0160 cp         1 VGN      -0.126000
     14 C4           2.8700     0.6910    -0.4690 ca         1 VGN      -0.206600
     15 O2           2.9090     2.8660    -1.3960 o          1 VGN      -0.813300
     16 C13         -2.9350    -1.3100    -0.2180 ca         1 VGN      -0.117000
     17 C5           3.6030     1.9180    -1.0090 c          1 VGN       0.936200
     18 C2           1.4820     0.7280    -0.4470 ca         1 VGN      -0.059000
     19 C21         -7.8680     0.1130     0.0200 ca         1 VGN      -0.141000
     20 C23         -0.7690    -0.2510     0.0200 cp         1 VGN       0.026000
     21 C20         -7.1300     0.8680     0.9230 ca         1 VGN      -0.133000
     22 N10          4.9120    -0.4860    -0.0340 ns         1 VGN      -0.489100
     23 C1           7.2310    -1.0400     0.2110 c3         1 VGN      -0.176100
     24 C14          5.7830    -1.4430     0.3600 c          1 VGN       0.672100
     25 O15          5.4680    -2.5290     0.8240 o          1 VGN      -0.646100
     26 HB           3.2280    -2.4300     0.8420 ha         1 VGN       0.151000
     27 HG           0.8110    -2.3030     0.8640 ha         1 VGN       0.108000
     28 H12         -3.2860     1.9830     0.4500 ha         1 VGN       0.121000
     29 H13         -3.5070    -2.2120    -0.3980 ha         1 VGN       0.121000
     30 H21         -8.9490     0.1680     0.0180 ha         1 VGN       0.121000
     31 H9          -1.0800    -2.3330    -0.4300 ha         1 VGN       0.138000
     32 H18         -5.1860     1.3740     1.6520 ha         1 VGN       0.133000
     33 H8          -0.8580     1.8500     0.4710 ha         1 VGN       0.138000
     34 H20         -7.6360     1.5090     1.6340 ha         1 VGN       0.122500
     35 H10          5.2650     0.4080    -0.4190 hn         1 VGN       0.397500
     36 H2           1.0010     1.6180    -0.8300 ha         1 VGN       0.151000
     37 H11C         7.6010    -0.6730     1.1700 hc         1 VGN       0.053033
     38 H12C         7.8300    -1.9060    -0.0630 hc         1 VGN       0.053033
     39 H13C         7.3860    -0.2560    -0.5280 hc         1 VGN       0.053033
     40 H22         -7.7730    -1.3000    -1.5920 ha         1 VGN       0.122500
     41 H19         -5.3220    -1.4160    -1.6000 ha         1 VGN       0.133000
@<TRIPOS>BOND
     1     1     2 ar  
     2     1    12 ar  
     3     1    26 1   
     4     2    13 ar  
     5     2    27 1   
     6     3     8 1   
     7     3    10 ar  
     8     3    16 ar  
     9     4    17 1   
    10     5     7 ar  
    11     5    19 ar  
    12     5    40 1   
    13     6    16 ar  
    14     6    20 ar  
    15     6    31 1   
    16     7     8 ar  
    17     7    41 1   
    18     8    11 ar  
    19     9    10 ar  
    20     9    20 ar  
    21     9    33 1   
    22    10    28 1   
    23    11    21 ar  
    24    11    32 1   
    25    12    14 ar  
    26    12    22 1   
    27    13    18 ar  
    28    13    20 1   
    29    14    17 1   
    30    14    18 ar  
    31    15    17 1   
    32    16    29 1   
    33    18    36 1   
    34    19    21 ar  
    35    19    30 1   
    36    21    34 1   
    37    22    24 1   
    38    22    35 1   
    39    23    24 1   
    40    23    37 1   
    41    23    38 1   
    42    23    39 1   
    43    24    25 2   
@<TRIPOS>SUBSTRUCTURE
     1 VGN         1 TEMP              0 ****  ****    0 ROOT
