@<TRIPOS>MOLECULE
VGO
   22    22     1     0     0
SMALL
abcg2


@<TRIPOS>ATOM
      1 C4         -17.5970    15.7080    57.4020 c6         1 VGO       0.135800
      2 C5         -16.7180    16.9420    57.5730 c6         1 VGO       0.390000
      3 C6         -17.3740    17.9430    58.5410 c6         1 VGO       0.154300
      4 N1         -17.7270    15.0850    58.7170 n7         1 VGO      -0.897400
      5 C3         -18.4810    15.9430    59.6360 c6         1 VGO       0.169800
      6 C1         -18.5060    18.1440    60.8550 c          1 VGO       0.714000
      7 O2         -18.3160    17.9660    62.0750 o          1 VGO      -0.719000
      8 C2         -17.7110    17.2490    59.8770 c6         1 VGO      -0.226700
      9 O3         -15.4560    16.5510    58.1120 oh         1 VGO      -0.684000
     10 O4         -16.5030    17.5030    56.3070 oh         1 VGO      -0.684000
     11 O5         -18.5320    18.4930    57.9290 oh         1 VGO      -0.734000
     12 H1         -18.5580    16.0160    56.9740 h1         1 VGO       0.045700
     13 H2         -17.1070    15.0180    56.7140 h1         1 VGO       0.045700
     14 H3         -16.6340    18.7350    58.7310 h1         1 VGO       0.029700
     15 H4         -18.1750    14.1800    58.6330 hn         1 VGO       0.398000
     16 H6         -19.4810    16.1750    59.2420 h1         1 VGO       0.039700
     17 H7         -18.6060    15.4160    60.5830 h1         1 VGO       0.039700
     18 H9         -16.7730    16.9950    60.3700 hc         1 VGO       0.057700
     19 H10        -15.6390    15.7770    58.6710 ho         1 VGO       0.464000
     20 H11        -16.2130    18.4190    56.4140 ho         1 VGO       0.464000
     21 H12        -19.0530    18.8270    58.7060 ho         1 VGO       0.516000
     22 O1         -19.3270    18.9750    60.3540 o          1 VGO      -0.719000
@<TRIPOS>BOND
     1     1     2 1   
     2     1     4 1   
     3     1    12 1   
     4     1    13 1   
     5     2     3 1   
     6     2     9 1   
     7     2    10 1   
     8     3     8 1   
     9     3    11 1   
    10     3    14 1   
    11     4     5 1   
    12     4    15 1   
    13     5     8 1   
    14     5    16 1   
    15     5    17 1   
    16     6     7 1   
    17     6     8 1   
    18     6    22 1   
    19     8    18 1   
    20     9    19 1   
    21    10    20 1   
    22    11    21 1   
@<TRIPOS>SUBSTRUCTURE
     1 VGO         1 TEMP              0 ****  ****    0 ROOT
