@<TRIPOS>MOLECULE
VGO
   22    22     1     0     0
SMALL
No Charge or Current Charge


@<TRIPOS>ATOM
      1 C4         -17.5170    15.6900    57.4010 c6         1 VGO       0.135800
      2 C5         -16.6010    16.9490    57.5850 c6         1 VGO       0.390000
      3 C6         -17.3140    17.9630    58.5690 c6         1 VGO       0.154300
      4 N1         -17.8000    15.0310    58.7130 n7         1 VGO      -0.897400
      5 C3         -18.5300    15.9440    59.6300 c6         1 VGO       0.169800
      6 C1         -18.5000    18.1690    60.8430 c          1 VGO       0.714000
      7 O2         -18.0300    18.3880    61.9480 o          1 VGO      -0.719000
      8 C2         -17.7290    17.2450    59.8920 c6         1 VGO      -0.226700
      9 O3         -15.3770    16.5140    58.1490 oh         1 VGO      -0.684000
     10 O4         -16.3120    17.5540    56.3350 oh         1 VGO      -0.684000
     11 O5         -18.4750    18.5770    57.9780 oh         1 VGO      -0.734000
     12 H1         -18.4630    15.9870    56.9240 h1         1 VGO       0.045700
     13 H2         -17.0240    14.9710    56.7290 h1         1 VGO       0.045700
     14 H3         -16.5930    18.7520    58.8330 h1         1 VGO       0.029700
     15 H4         -18.3870    14.2020    58.5470 hn         1 VGO       0.398000
     16 H6         -19.5100    16.1900    59.1950 h1         1 VGO       0.039700
     17 H7         -18.7160    15.4290    60.5850 h1         1 VGO       0.039700
     18 H9         -16.8150    16.9480    60.4240 hc         1 VGO       0.057700
     19 H10        -15.6240    15.6300    58.5030 ho         1 VGO       0.464000
     20 H11        -16.5780    18.4900    56.4620 ho         1 VGO       0.464000
     21 H12        -19.0770    18.7440    58.7570 ho         1 VGO       0.516000
     22 O1         -19.5190    18.6930    60.4150 o          1 VGO      -0.719000
@<TRIPOS>BOND
     1     1     2 1   
     2     1     4 1   
     3     1    12 1   
     4     1    13 1   
     5     2     3 1   
     6     2     9 1   
     7     2    10 1   
     8     3     8 1   
     9     3    11 1   
    10     3    14 1   
    11     4     5 1   
    12     4    15 1   
    13     5     8 1   
    14     5    16 1   
    15     5    17 1   
    16     6     7 1   
    17     6     8 1   
    18     6    22 1   
    19     8    18 1   
    20     9    19 1   
    21    10    20 1   
    22    11    21 1   
@<TRIPOS>SUBSTRUCTURE
     1 VGO         1 TEMP              0 ****  ****    0 ROOT
