@<TRIPOS>MOLECULE
VGP
   64    68     1     0     0
SMALL
No Charge or Current Charge


@<TRIPOS>ATOM
      1 C            5.9580     1.3040     1.1230 c3         1 VGP       0.147900
      2 O           -6.1600    -0.6850    -0.5360 oh         1 VGP      -0.731000
      3 C01         -2.6300     3.1800     0.0820 ca         1 VGP      -0.175000
      4 O01          0.1150    -1.1530    -0.0890 os         1 VGP      -0.376100
      5 C02         -2.9830     1.8440     0.2420 ca         1 VGP      -0.026000
      6 C03         -2.0140     0.8160     0.2290 ca         1 VGP      -0.101300
      7 C04         -0.6270     1.1660     0.0180 ca         1 VGP       0.034000
      8 O04          4.6070     1.0160     0.7190 os         1 VGP      -0.342100
      9 C05         -0.2740     2.5490    -0.1050 ca         1 VGP      -0.106000
     10 O05          0.8040    -1.9100    -2.1500 oh         1 VGP      -0.652000
     11 C06         -1.2970     3.5370    -0.0770 ca         1 VGP       0.179100
     12 O06         -3.7780    -0.6150     1.2490 os         1 VGP      -0.457000
     13 C07          0.4220     0.1900    -0.0780 ca         1 VGP       0.110100
     14 O07         -2.8390    -3.5400     0.2210 oh         1 VGP      -0.708000
     15 C08          1.7940     0.5650    -0.1360 ca         1 VGP      -0.039000
     16 O08         -3.7710    -0.4780    -1.6930 oh         1 VGP      -0.697000
     17 C09          2.0930     1.9340    -0.2670 ca         1 VGP      -0.158000
     18 C10          1.0910     2.9180    -0.2660 ca         1 VGP       0.127100
     19 C11          0.9830    -2.0750    -0.7470 c6         1 VGP       0.436600
     20 C12          2.4190    -1.7780    -0.3590 ca         1 VGP      -0.083300
     21 C13          2.8130    -0.4480    -0.0800 ca         1 VGP      -0.019000
     22 C14          3.3450    -2.8350    -0.3550 ca         1 VGP      -0.111000
     23 C15          4.6930    -2.6120    -0.0530 ca         1 VGP      -0.014800
     24 C16          5.1030    -1.3070     0.2620 ca         1 VGP      -0.182000
     25 C17          4.1870    -0.2260     0.2690 ca         1 VGP       0.156100
     26 C19          6.9060    -3.7740     0.4120 c2         1 VGP      -0.299000
     27 C20         -2.9390    -1.3000    -0.8500 c5         1 VGP       0.107300
     28 C21         -2.5370    -0.6180     0.5050 c5         1 VGP       0.238600
     29 C22         -3.7270    -2.5160    -0.2620 c5         1 VGP       0.095300
     30 C23         -4.5080    -1.8310     0.9240 c5         1 VGP       0.132300
     31 C24         -6.0100    -1.5000     0.6380 c3         1 VGP       0.176300
     32 C25         -6.7300    -0.8070     1.8130 c3         1 VGP      -0.114100
     33 C26          2.7930     4.7250    -0.5370 c3         1 VGP       0.160900
     34 H            6.0460     2.3530     1.4300 h1         1 VGP       0.042367
     35 HA           6.2550     0.6770     1.9730 h1         1 VGP       0.042367
     36 HB           6.6590     1.1340     0.2950 h1         1 VGP       0.042367
     37 HO          -5.2430    -0.5900    -0.9280 ho         1 VGP       0.523000
     38 H01         -3.4000     3.9470     0.0980 ha         1 VGP       0.130000
     39 H02         -4.0370     1.6150     0.3800 ha         1 VGP       0.127000
     40 HO02        -0.0470     4.9210    -0.3110 ho         1 VGP       0.495000
     41 HO07        -2.6810    -4.1690    -0.5220 ho         1 VGP       0.501000
     42 HO08        -3.1770     0.1730    -2.1360 ho         1 VGP       0.503000
     43 H09          3.1100     2.2420    -0.4490 ha         1 VGP       0.134000
     44 H14          3.0100    -3.8410    -0.6000 ha         1 VGP       0.116000
     45 H16          6.1430    -1.1410     0.5120 ha         1 VGP       0.119000
     46 H18          5.2350    -4.6800    -0.5090 ha         1 VGP       0.172000
     47 H19          7.5220    -4.6730     0.3590 ha         1 VGP       0.164000
     48 H19A         7.3710    -2.9070     0.8780 ha         1 VGP       0.164000
     49 H20         -2.0600    -1.6370    -1.4130 h1         1 VGP       0.041700
     50 H21         -1.8300    -1.2180     1.0900 h1         1 VGP       0.083700
     51 H22         -4.4210    -2.9400    -1.0020 h1         1 VGP       0.058700
     52 H23         -4.4840    -2.4860     1.8070 h1         1 VGP       0.073700
     53 H24         -6.5150    -2.4630     0.4730 h1         1 VGP       0.063700
     54 H25         -6.2890     0.1750     2.0220 hc         1 VGP       0.045033
     55 H25A        -7.7940    -0.6650     1.5850 hc         1 VGP       0.045033
     56 H25B        -6.6570    -1.4170     2.7210 hc         1 VGP       0.045033
     57 H26          2.8120     5.8190    -0.6190 h1         1 VGP       0.044700
     58 H26A         3.3850     4.4420     0.3420 h1         1 VGP       0.044700
     59 H26B         3.2700     4.3120    -1.4350 h1         1 VGP       0.044700
     60 H27         -0.1560    -2.0100    -2.2970 ho         1 VGP       0.449000
     61 H28          0.7260    -3.1030    -0.4450 h2         1 VGP       0.072700
     62 C18          5.6410    -3.7670    -0.0690 ce         1 VGP      -0.164200
     63 O02         -1.0290     4.8650    -0.2050 oh         1 VGP      -0.542100
     64 O03          1.4340     4.2570    -0.4150 os         1 VGP      -0.389100
@<TRIPOS>BOND
     1     1     8 1   
     2     1    34 1   
     3     1    35 1   
     4     1    36 1   
     5     2    31 1   
     6     2    37 1   
     7     3     5 ar  
     8     3    11 ar  
     9     3    38 1   
    10     4    13 1   
    11     4    19 1   
    12     5     6 ar  
    13     5    39 1   
    14     6     7 ar  
    15     6    28 1   
    16     7     9 ar  
    17     7    13 ar  
    18     8    25 1   
    19     9    11 ar  
    20     9    18 ar  
    21    10    19 1   
    22    10    60 1   
    23    11    63 1   
    24    12    28 1   
    25    12    30 1   
    26    13    15 ar  
    27    14    29 1   
    28    14    41 1   
    29    15    17 ar  
    30    15    21 1   
    31    16    27 1   
    32    16    42 1   
    33    17    18 ar  
    34    17    43 1   
    35    18    64 1   
    36    19    20 1   
    37    19    61 1   
    38    20    21 ar  
    39    20    22 ar  
    40    21    25 ar  
    41    22    23 ar  
    42    22    44 1   
    43    23    24 ar  
    44    23    62 1   
    45    24    25 ar  
    46    24    45 1   
    47    26    47 1   
    48    26    48 1   
    49    26    62 2   
    50    27    28 1   
    51    27    29 1   
    52    27    49 1   
    53    28    50 1   
    54    29    30 1   
    55    29    51 1   
    56    30    31 1   
    57    30    52 1   
    58    31    32 1   
    59    31    53 1   
    60    32    54 1   
    61    32    55 1   
    62    32    56 1   
    63    33    57 1   
    64    33    58 1   
    65    33    59 1   
    66    33    64 1   
    67    40    63 1   
    68    46    62 1   
@<TRIPOS>SUBSTRUCTURE
     1 VGP         1 TEMP              0 ****  ****    0 ROOT
