@<TRIPOS>MOLECULE
VGP
   64    68     1     0     0
SMALL
abcg2


@<TRIPOS>ATOM
      1 C            5.8540     1.2270     1.1360 c3         1 VGP       0.147900
      2 O           -6.2020    -0.7560    -0.4850 oh         1 VGP      -0.731000
      3 C01         -2.5610     3.1710     0.2710 ca         1 VGP      -0.175000
      4 O01          0.1740    -1.0780    -0.0150 os         1 VGP      -0.376100
      5 C02         -2.8880     1.8230     0.3690 ca         1 VGP      -0.026000
      6 C03         -1.9570     0.8150     0.2680 ca         1 VGP      -0.101300
      7 C04         -0.5900     1.1820     0.0520 ca         1 VGP       0.034000
      8 O04          4.5270     0.9830     0.7140 os         1 VGP      -0.342100
      9 C05         -0.2430     2.5700    -0.0540 ca         1 VGP      -0.106000
     10 O05          0.9050    -1.6720    -2.1360 oh         1 VGP      -0.652000
     11 C06         -1.2620     3.5610     0.0590 ca         1 VGP       0.179100
     12 O06         -3.7070    -0.6130     1.0790 os         1 VGP      -0.457000
     13 C07          0.4830     0.2420    -0.0450 ca         1 VGP       0.110100
     14 O07         -3.0080    -3.5380    -0.1060 oh         1 VGP      -0.708000
     15 C08          1.8070     0.6180    -0.1300 ca         1 VGP      -0.039000
     16 O08         -3.5070    -0.3260    -1.7530 oh         1 VGP      -0.697000
     17 C09          2.1140     1.9870    -0.2950 ca         1 VGP      -0.158000
     18 C10          1.1240     2.9210    -0.2810 ca         1 VGP       0.127100
     19 C11          1.0020    -1.9330    -0.7800 c6         1 VGP       0.436600
     20 C12          2.4250    -1.7390    -0.3640 ca         1 VGP      -0.083300
     21 C13          2.8240    -0.4390    -0.0650 ca         1 VGP      -0.019000
     22 C14          3.2910    -2.8170    -0.2990 ca         1 VGP      -0.111000
     23 C15          4.6140    -2.6280     0.0800 ca         1 VGP      -0.014800
     24 C16          5.0340    -1.3350     0.4050 ca         1 VGP      -0.182000
     25 C17          4.1630    -0.2570     0.3530 ca         1 VGP       0.156100
     26 C19          6.7900    -3.7930     0.5090 c2         1 VGP      -0.299000
     27 C20         -2.8330    -1.2640    -0.9560 c5         1 VGP       0.107300
     28 C21         -2.4730    -0.6040     0.3780 c5         1 VGP       0.238600
     29 C22         -3.7500    -2.4010    -0.4810 c5         1 VGP       0.095300
     30 C23         -4.4020    -1.8160     0.7850 c5         1 VGP       0.132300
     31 C24         -5.8930    -1.5220     0.6590 c3         1 VGP       0.176300
     32 C25         -6.4570    -0.8930     1.9270 c3         1 VGP      -0.114100
     33 C26          2.6950     4.6760    -0.7480 c3         1 VGP       0.160900
     34 H            5.9070     2.2860     1.3740 h1         1 VGP       0.042367
     35 HA           6.1110     0.6520     2.0290 h1         1 VGP       0.042367
     36 HB           6.5790     1.0050     0.3490 h1         1 VGP       0.042367
     37 HO          -5.5580    -0.0430    -0.5660 ho         1 VGP       0.523000
     38 H01         -3.3330     3.9250     0.3620 ha         1 VGP       0.130000
     39 H02         -3.9240     1.5740     0.5440 ha         1 VGP       0.127000
     40 HO02        -0.0860     5.0350    -0.1940 ho         1 VGP       0.495000
     41 HO07        -2.6600    -3.9480    -0.9040 ho         1 VGP       0.501000
     42 HO08        -3.8870    -0.7870    -2.5070 ho         1 VGP       0.503000
     43 H09          3.1360     2.2800    -0.4610 ha         1 VGP       0.134000
     44 H14          2.9340    -3.8110    -0.5420 ha         1 VGP       0.116000
     45 H16          6.0570    -1.1790     0.7160 ha         1 VGP       0.119000
     46 H18          5.0520    -4.7310    -0.1400 ha         1 VGP       0.172000
     47 H19          7.3530    -4.7150     0.5250 ha         1 VGP       0.164000
     48 H19A         7.3250    -2.9010     0.8070 ha         1 VGP       0.164000
     49 H20         -1.9520    -1.6600    -1.4700 h1         1 VGP       0.041700
     50 H21         -1.7670    -1.2460     0.9030 h1         1 VGP       0.083700
     51 H22         -4.4980    -2.6520    -1.2440 h1         1 VGP       0.058700
     52 H23         -4.2700    -2.5360     1.6050 h1         1 VGP       0.073700
     53 H24         -6.3810    -2.4920     0.5110 h1         1 VGP       0.063700
     54 H25         -6.0060     0.0780     2.1330 hc         1 VGP       0.045033
     55 H25A        -7.5340    -0.7540     1.8350 hc         1 VGP       0.045033
     56 H25B        -6.2800    -1.5360     2.7910 hc         1 VGP       0.045033
     57 H26          2.6370     5.7500    -0.8970 h1         1 VGP       0.044700
     58 H26A         3.3640     4.4670     0.0890 h1         1 VGP       0.044700
     59 H26B         3.0900     4.2100    -1.6520 h1         1 VGP       0.044700
     60 H27          0.0940    -2.0570    -2.4870 ho         1 VGP       0.449000
     61 H28          0.6480    -2.9370    -0.5280 h2         1 VGP       0.072700
     62 C18          5.5090    -3.7870     0.1420 ce         1 VGP      -0.164200
     63 O02         -1.0290     4.8810    -0.0130 oh         1 VGP      -0.542100
     64 O03          1.3730     4.2420    -0.4800 os         1 VGP      -0.389100
@<TRIPOS>BOND
     1     1     8 1   
     2     1    34 1   
     3     1    35 1   
     4     1    36 1   
     5     2    31 1   
     6     2    37 1   
     7     3     5 ar  
     8     3    11 ar  
     9     3    38 1   
    10     4    13 1   
    11     4    19 1   
    12     5     6 ar  
    13     5    39 1   
    14     6     7 ar  
    15     6    28 1   
    16     7     9 ar  
    17     7    13 ar  
    18     8    25 1   
    19     9    11 ar  
    20     9    18 ar  
    21    10    19 1   
    22    10    60 1   
    23    11    63 1   
    24    12    28 1   
    25    12    30 1   
    26    13    15 ar  
    27    14    29 1   
    28    14    41 1   
    29    15    17 ar  
    30    15    21 1   
    31    16    27 1   
    32    16    42 1   
    33    17    18 ar  
    34    17    43 1   
    35    18    64 1   
    36    19    20 1   
    37    19    61 1   
    38    20    21 ar  
    39    20    22 ar  
    40    21    25 ar  
    41    22    23 ar  
    42    22    44 1   
    43    23    24 ar  
    44    23    62 1   
    45    24    25 ar  
    46    24    45 1   
    47    26    47 1   
    48    26    48 1   
    49    26    62 2   
    50    27    28 1   
    51    27    29 1   
    52    27    49 1   
    53    28    50 1   
    54    29    30 1   
    55    29    51 1   
    56    30    31 1   
    57    30    52 1   
    58    31    32 1   
    59    31    53 1   
    60    32    54 1   
    61    32    55 1   
    62    32    56 1   
    63    33    57 1   
    64    33    58 1   
    65    33    59 1   
    66    33    64 1   
    67    40    63 1   
    68    46    62 1   
@<TRIPOS>SUBSTRUCTURE
     1 VGP         1 TEMP              0 ****  ****    0 ROOT
