@<TRIPOS>MOLECULE
VGQ
   43    45     1     0     0
SMALL
No Charge or Current Charge


@<TRIPOS>ATOM
      1 C23          5.7540    50.8220   -31.7580 ca         1 VGQ      -0.095000
      2 C24          5.6750    49.5140   -31.2530 ca         1 VGQ      -0.108000
      3 C11          8.2240    49.8930   -36.5980 ca         1 VGQ      -0.074500
      4 C13          7.1260    49.0290   -34.6060 ca         1 VGQ      -0.074500
      5 C10          6.9690    50.1490   -37.1770 ca         1 VGQ      -0.100000
      6 C14          5.8730    49.2880   -35.1850 ca         1 VGQ      -0.100000
      7 C22          4.5930    51.4750   -32.2060 ca         1 VGQ      -0.112000
      8 C25          4.4330    48.8590   -31.1970 ca         1 VGQ      -0.089000
      9 C12          8.3070    49.3340   -35.3090 ca         1 VGQ      -0.019000
     10 C9           5.7860    49.8510   -36.4730 ca         1 VGQ      -0.097300
     11 C21          3.3470    50.8220   -32.1590 ca         1 VGQ      -0.094000
     12 C26          3.2710    49.5090   -31.6450 ca         1 VGQ       0.125000
     13 C5           5.5300    53.0980   -36.2700 cc         1 VGQ       0.374300
     14 C2           7.1330    53.2630   -34.9720 cc         1 VGQ       0.659300
     15 C17          2.8170    51.0650   -35.3530 c          1 VGQ       0.609100
     16 C8           4.4260    50.1790   -37.0750 c3         1 VGQ       0.138300
     17 C6           4.1740    52.6840   -36.7960 c3         1 VGQ       0.089700
     18 C19          2.3780    52.2310   -34.4470 c3         1 VGQ      -0.082400
     19 N16         10.6320    48.8790   -34.2250 n1         1 VGQ      -0.451000
     20 N4           6.5060    53.6860   -36.9550 nd         1 VGQ      -0.325000
     21 N3           7.5620    53.8160   -36.0820 nd         1 VGQ      -0.443000
     22 N7           3.7730    51.3090   -36.3710 n          1 VGQ      -0.416800
     23 O18          2.3720    49.9380   -35.1800 o          1 VGQ      -0.553100
     24 O28          5.8640    52.8210   -34.9820 os         1 VGQ      -0.273000
     25 O1           7.7350    53.2130   -33.7850 oh         1 VGQ      -0.605300
     26 S20          1.8770    51.6580   -32.7580 ss         1 VGQ      -0.053000
     27 Cl1          1.7310    48.6530   -31.5650 cl         1 VGQ      -0.187000
     28 H1           6.7140    51.3320   -31.7990 ha         1 VGQ       0.118000
     29 H2           6.5740    49.0100   -30.9030 ha         1 VGQ       0.120000
     30 H3           9.1300    50.1350   -37.1510 ha         1 VGQ       0.130500
     31 H4           7.1780    48.5950   -33.6090 ha         1 VGQ       0.130500
     32 H5           6.9190    50.5930   -38.1700 ha         1 VGQ       0.133000
     33 H6           4.9680    49.0600   -34.6250 ha         1 VGQ       0.133000
     34 H7           4.6660    52.4930   -32.5810 ha         1 VGQ       0.117000
     35 H8           4.3700    47.8470   -30.8050 ha         1 VGQ       0.130000
     36 H9           4.5440    50.4370   -38.1360 h1         1 VGQ       0.075200
     37 H10          3.7910    49.2840   -37.0430 h1         1 VGQ       0.075200
     38 H11          4.2100    52.7160   -37.8920 h1         1 VGQ       0.084200
     39 H12          3.4280    53.4280   -36.4920 h1         1 VGQ       0.084200
     40 H13          3.2070    52.9360   -34.3340 h1         1 VGQ       0.092700
     41 H14          1.5390    52.7450   -34.9300 h1         1 VGQ       0.092700
     42 H15          8.5940    53.6460   -33.9600 ho         1 VGQ       0.522000
     43 C15          9.5890    49.0770   -34.7120 cg         1 VGQ       0.322000
@<TRIPOS>BOND
     1     1     2 ar  
     2     1     7 ar  
     3     1    28 1   
     4     2     8 ar  
     5     2    29 1   
     6     3     5 ar  
     7     3     9 ar  
     8     3    30 1   
     9     4     6 ar  
    10     4     9 ar  
    11     4    31 1   
    12     5    10 ar  
    13     5    32 1   
    14     6    10 ar  
    15     6    33 1   
    16     7    11 ar  
    17     7    34 1   
    18     8    12 ar  
    19     8    35 1   
    20     9    43 1   
    21    10    16 1   
    22    11    12 ar  
    23    11    26 1   
    24    12    27 1   
    25    13    17 1   
    26    13    20 2   
    27    13    24 1   
    28    14    21 2   
    29    14    24 1   
    30    14    25 1   
    31    15    18 1   
    32    15    22 1   
    33    15    23 2   
    34    16    22 1   
    35    16    36 1   
    36    16    37 1   
    37    17    22 1   
    38    17    38 1   
    39    17    39 1   
    40    18    26 1   
    41    18    40 1   
    42    18    41 1   
    43    19    43 3   
    44    20    21 1   
    45    25    42 1   
@<TRIPOS>SUBSTRUCTURE
     1 VGQ         1 TEMP              0 ****  ****    0 ROOT
