@<TRIPOS>MOLECULE
VGQ
   43    45     1     0     0
SMALL
abcg2


@<TRIPOS>ATOM
      1 C23          5.2750    50.1960   -31.4840 ca         1 VGQ      -0.095000
      2 C24          4.9180    49.4900   -30.3460 ca         1 VGQ      -0.108000
      3 C11          8.4140    50.3510   -37.0750 ca         1 VGQ      -0.074500
      4 C13          7.5550    49.2170   -35.1190 ca         1 VGQ      -0.074500
      5 C10          7.1180    50.5240   -37.5300 ca         1 VGQ      -0.100000
      6 C14          6.2680    49.3990   -35.5860 ca         1 VGQ      -0.100000
      7 C22          4.3020    50.7010   -32.3340 ca         1 VGQ      -0.112000
      8 C25          3.5750    49.2910   -30.0590 ca         1 VGQ      -0.089000
      9 C12          8.6320    49.7040   -35.8610 ca         1 VGQ      -0.019000
     10 C9           6.0330    50.0690   -36.7870 ca         1 VGQ      -0.097300
     11 C21          2.9480    50.5100   -32.0660 ca         1 VGQ      -0.094000
     12 C26          2.6110    49.7990   -30.9130 ca         1 VGQ       0.125000
     13 C5           5.6180    53.0610   -36.2360 cc         1 VGQ       0.374300
     14 C2           7.3680    53.1320   -35.0840 cc         1 VGQ       0.659300
     15 C17          3.1260    50.8220   -35.3880 c          1 VGQ       0.609100
     16 C8           4.6230    50.3480   -37.2480 c3         1 VGQ       0.138300
     17 C6           4.2220    52.6920   -36.6000 c3         1 VGQ       0.089700
     18 C19          2.4900    51.8550   -34.4590 c3         1 VGQ      -0.082400
     19 N16         11.0380    49.4210   -34.9750 n1         1 VGQ      -0.451000
     20 N4           6.4770    53.7210   -36.9150 nd         1 VGQ      -0.325000
     21 N3           7.6310    53.7790   -36.1650 nd         1 VGQ      -0.443000
     22 N7           3.9380    51.2920   -36.3710 n          1 VGQ      -0.416800
     23 O18          2.9010    49.6360   -35.2500 o          1 VGQ      -0.553100
     24 O28          6.1230    52.6640   -35.0450 os         1 VGQ      -0.273000
     25 O1           8.1060    52.8640   -34.0440 oh         1 VGQ      -0.605300
     26 S20          1.6320    51.1160   -33.0660 ss         1 VGQ      -0.053000
     27 CL1          0.9380    49.5450   -30.5350 cl         1 VGQ      -0.187000
     28 H1           6.3170    50.3620   -31.7220 ha         1 VGQ       0.118000
     29 H2           5.6740    49.0940   -29.6820 ha         1 VGQ       0.120000
     30 H3           9.2490    50.7240   -37.6530 ha         1 VGQ       0.130500
     31 H4           7.7270    48.7050   -34.1820 ha         1 VGQ       0.130500
     32 H5           6.9500    51.0390   -38.4670 ha         1 VGQ       0.133000
     33 H6           5.4380    49.0230   -35.0020 ha         1 VGQ       0.133000
     34 H7           4.6220    51.2520   -33.2050 ha         1 VGQ       0.117000
     35 H8           3.2760    48.7440   -29.1750 ha         1 VGQ       0.130000
     36 H9           4.6360    50.7690   -38.2550 h1         1 VGQ       0.075200
     37 H10          4.0460    49.4270   -37.2900 h1         1 VGQ       0.075200
     38 H11          4.0910    52.9300   -37.6570 h1         1 VGQ       0.084200
     39 H12          3.5180    53.3240   -36.0600 h1         1 VGQ       0.084200
     40 H13          3.1960    52.6060   -34.1050 h1         1 VGQ       0.092700
     41 H14          1.7110    52.4010   -34.9990 h1         1 VGQ       0.092700
     42 H15          8.9960    53.2290   -34.1540 ho         1 VGQ       0.522000
     43 C15          9.9630    49.5450   -35.3720 cg         1 VGQ       0.322000
@<TRIPOS>BOND
     1     1     2 ar  
     2     1     7 ar  
     3     1    28 1   
     4     2     8 ar  
     5     2    29 1   
     6     3     5 ar  
     7     3     9 ar  
     8     3    30 1   
     9     4     6 ar  
    10     4     9 ar  
    11     4    31 1   
    12     5    10 ar  
    13     5    32 1   
    14     6    10 ar  
    15     6    33 1   
    16     7    11 ar  
    17     7    34 1   
    18     8    12 ar  
    19     8    35 1   
    20     9    43 1   
    21    10    16 1   
    22    11    12 ar  
    23    11    26 1   
    24    12    27 1   
    25    13    17 1   
    26    13    20 2   
    27    13    24 1   
    28    14    21 2   
    29    14    24 1   
    30    14    25 1   
    31    15    18 1   
    32    15    22 1   
    33    15    23 2   
    34    16    22 1   
    35    16    36 1   
    36    16    37 1   
    37    17    22 1   
    38    17    38 1   
    39    17    39 1   
    40    18    26 1   
    41    18    40 1   
    42    18    41 1   
    43    19    43 3   
    44    20    21 1   
    45    25    42 1   
@<TRIPOS>SUBSTRUCTURE
     1 VGQ         1 TEMP              0 ****  ****    0 ROOT
