@<TRIPOS>MOLECULE
VGS
   28    28     1     0     0
SMALL
No Charge or Current Charge


@<TRIPOS>ATOM
      1 C13         -6.7200     8.9460    13.2080 c3         1 VGS      -0.087433
      2 C15         -4.2960     8.7450    13.8880 c3         1 VGS      -0.087433
      3 C05         -5.4140     2.6800    16.0190 cc         1 VGS       0.111300
      4 C08         -5.0980     4.8770    15.1520 cc         1 VGS       0.508300
      5 C11         -5.7640     6.6180    13.5110 c          1 VGS       0.608100
      6 C12         -5.4370     8.0810    13.0570 c3         1 VGS      -0.110000
      7 C16         -5.0040     8.0530    11.5650 c3         1 VGS      -0.087433
      8 N04         -4.9950     0.0370    15.4270 n8         1 VGS      -1.024100
      9 N06         -4.4540     3.3380    16.6600 nd         1 VGS      -0.177000
     10 N07         -4.2760     4.6140    16.1550 nd         1 VGS      -0.409000
     11 N10         -5.0250     6.1140    14.5560 ns         1 VGS      -0.467400
     12 O02         -7.2750     0.7200    15.9480 o          1 VGS      -0.532000
     13 O03         -5.4660     0.5990    17.7530 o          1 VGS      -0.532000
     14 O14         -6.6340     5.9610    12.9590 o          1 VGS      -0.559100
     15 S09         -6.1780     3.5720    14.7350 ss         1 VGS      -0.026800
     16 H1          -7.0570     8.9660    14.2520 hc         1 VGS       0.047367
     17 H2          -6.5370     9.9800    12.8910 hc         1 VGS       0.047367
     18 H3          -7.5400     8.5490    12.5960 hc         1 VGS       0.047367
     19 H4          -4.5620     8.8150    14.9510 hc         1 VGS       0.047367
     20 H5          -3.3550     8.1870    13.7960 hc         1 VGS       0.047367
     21 H6          -4.1040     9.7660    13.5340 hc         1 VGS       0.047367
     22 H7          -4.1090     7.4330    11.4300 hc         1 VGS       0.047367
     23 H8          -5.7980     7.6430    10.9290 hc         1 VGS       0.047367
     24 H9          -4.7740     9.0630    11.2020 hc         1 VGS       0.047367
     25 H10         -4.5450    -0.5670    16.1130 hn         1 VGS       0.487500
     26 H11         -5.7080    -0.5800    15.0400 hn         1 VGS       0.487500
     27 H12         -4.3340     6.7420    14.9370 hn         1 VGS       0.350500
     28 S01         -5.9120     0.9790    16.4120 sy         1 VGS       1.119200
@<TRIPOS>BOND
     1     1     6 1   
     2     1    16 1   
     3     1    17 1   
     4     1    18 1   
     5     2     6 1   
     6     2    19 1   
     7     2    20 1   
     8     2    21 1   
     9     3     9 2   
    10     3    15 1   
    11     3    28 1   
    12     4    10 2   
    13     4    11 1   
    14     4    15 1   
    15     5     6 1   
    16     5    11 1   
    17     5    14 2   
    18     6     7 1   
    19     7    22 1   
    20     7    23 1   
    21     7    24 1   
    22     8    25 1   
    23     8    26 1   
    24     8    28 1   
    25     9    10 1   
    26    11    27 1   
    27    12    28 2   
    28    13    28 2   
@<TRIPOS>SUBSTRUCTURE
     1 VGS         1 TEMP              0 ****  ****    0 ROOT
