@<TRIPOS>MOLECULE
VGS
   28    28     1     0     0
SMALL
abcg2


@<TRIPOS>ATOM
      1 C13         -6.8630     8.6640    12.7840 c3         1 VGS      -0.087433
      2 C15         -4.8630     8.9660    14.2590 c3         1 VGS      -0.087433
      3 C05         -5.1830     2.7000    15.8010 cc         1 VGS       0.111300
      4 C08         -4.7380     4.7700    14.8390 cc         1 VGS       0.508300
      5 C11         -5.7950     6.6940    13.8560 c          1 VGS       0.608100
      6 C12         -5.5350     8.0530    13.2250 c3         1 VGS      -0.110000
      7 C16         -4.6190     7.8850    12.0040 c3         1 VGS      -0.087433
      8 N04         -5.3810     0.0810    15.4520 n8         1 VGS      -1.024100
      9 N06         -3.9240     2.9480    15.7490 nd         1 VGS      -0.177000
     10 N07         -3.6550     4.1370    15.1970 nd         1 VGS      -0.409000
     11 N10         -4.6820     5.9970    14.2570 ns         1 VGS      -0.467400
     12 O02         -7.2820     1.4590    16.5120 o          1 VGS      -0.532000
     13 O03         -5.1510     0.9590    17.7590 o          1 VGS      -0.532000
     14 O14         -6.8940     6.2060    14.0250 o          1 VGS      -0.559100
     15 S09         -6.2080     3.9320    15.1680 ss         1 VGS      -0.026800
     16 H1          -7.5520     8.7920    13.6180 hc         1 VGS       0.047367
     17 H2          -6.6780     9.6480    12.3540 hc         1 VGS       0.047367
     18 H3          -7.3560     8.0560    12.0250 hc         1 VGS       0.047367
     19 H4          -5.4770     9.0850    15.1520 hc         1 VGS       0.047367
     20 H5          -3.8820     8.6010    14.5680 hc         1 VGS       0.047367
     21 H6          -4.7140     9.9530    13.8190 hc         1 VGS       0.047367
     22 H7          -3.6250     7.5200    12.2650 hc         1 VGS       0.047367
     23 H8          -5.0490     7.2030    11.2700 hc         1 VGS       0.047367
     24 H9          -4.4850     8.8540    11.5240 hc         1 VGS       0.047367
     25 H10         -5.1750    -0.8080    15.8960 hn         1 VGS       0.487500
     26 H11         -6.0000    -0.0260    14.6560 hn         1 VGS       0.487500
     27 H12         -3.7550     6.3750    14.1230 hn         1 VGS       0.350500
     28 S01         -5.8490     1.2270    16.5180 sy         1 VGS       1.119200
@<TRIPOS>BOND
     1     1     6 1   
     2     1    16 1   
     3     1    17 1   
     4     1    18 1   
     5     2     6 1   
     6     2    19 1   
     7     2    20 1   
     8     2    21 1   
     9     3     9 2   
    10     3    15 1   
    11     3    28 1   
    12     4    10 2   
    13     4    11 1   
    14     4    15 1   
    15     5     6 1   
    16     5    11 1   
    17     5    14 2   
    18     6     7 1   
    19     7    22 1   
    20     7    23 1   
    21     7    24 1   
    22     8    25 1   
    23     8    26 1   
    24     8    28 1   
    25     9    10 1   
    26    11    27 1   
    27    12    28 2   
    28    13    28 2   
@<TRIPOS>SUBSTRUCTURE
     1 VGS         1 TEMP              0 ****  ****    0 ROOT
