@<TRIPOS>MOLECULE
VGT
   39    40     1     0     0
SMALL
No Charge or Current Charge


@<TRIPOS>ATOM
      1 C7          -1.5870    10.7490    13.2120 ca         1 VGT      -0.094000
      2 C8          -1.9590     5.3310    12.6710 c3         1 VGT      -0.007400
      3 C9          -4.2640     4.3700    14.1710 ca         1 VGT      -0.045000
      4 O1          -4.5520     0.8960    18.1810 o          1 VGT      -0.545500
      5 C1          -1.4930     7.8220    12.1000 c3         1 VGT       0.118600
      6 C5          -1.3750    12.5510    14.8390 ca         1 VGT      -0.103000
      7 C6          -1.8270    12.0810    13.5940 ca         1 VGT      -0.107500
      8 C4          -0.6800    11.6890    15.7020 ca         1 VGT      -0.107500
      9 C3          -0.4390    10.3570    15.3210 ca         1 VGT      -0.094000
     10 C2          -0.8910     9.8770    14.0780 ca         1 VGT      -0.033000
     11 O2          -6.9410     1.8200    17.9760 o          1 VGT      -0.545500
     12 N           -6.1250     0.0870    16.4680 n8         1 VGT      -1.003100
     13 C12         -5.1370     2.5350    16.1370 ca         1 VGT      -0.287500
     14 C11         -6.0310     3.4900    15.6130 ca         1 VGT       0.008000
     15 C10         -5.5910     4.3990    14.6350 ca         1 VGT      -0.138500
     16 C13         -3.8060     2.4990    15.6760 ca         1 VGT       0.008000
     17 C14         -3.3720     3.4120    14.6980 ca         1 VGT      -0.138500
     18 S           -3.7820     5.5660    12.9200 ss         1 VGT      -0.114000
     19 C           -1.3580     6.3420    11.6590 c3         1 VGT       0.193300
     20 O           -1.9760     6.1700    10.3710 oh         1 VGT      -0.653000
     21 SE          -0.5460     8.1650    13.6610 ss         1 VGT      -0.319000
     22 H1          -1.9440    10.4160    12.2430 ha         1 VGT       0.122000
     23 H2          -1.7810     4.3100    12.3120 h1         1 VGT       0.076200
     24 H3          -1.4560     5.4420    13.6390 h1         1 VGT       0.076200
     25 H4          -1.1010     8.4660    11.3030 h1         1 VGT       0.082700
     26 H5          -2.5510     8.0690    12.2560 h1         1 VGT       0.082700
     27 H6          -1.5610    13.5820    15.1320 ha         1 VGT       0.116000
     28 H7          -2.3630    12.7490    12.9240 ha         1 VGT       0.116500
     29 H8          -0.3270    12.0510    16.6650 ha         1 VGT       0.116500
     30 H9           0.1000     9.6940    15.9940 ha         1 VGT       0.122000
     31 H10         -7.0690    -0.0770    16.8090 hn         1 VGT       0.472000
     32 H11         -6.2660     0.5140    15.5560 hn         1 VGT       0.472000
     33 H12         -7.0640     3.5350    15.9570 ha         1 VGT       0.136500
     34 H13         -6.2880     5.1320    14.2360 ha         1 VGT       0.123500
     35 H14         -3.1030     1.7660    16.0690 ha         1 VGT       0.136500
     36 H15         -2.3420     3.3550    14.3620 ha         1 VGT       0.123500
     37 H16         -0.2840     6.1260    11.5750 h1         1 VGT       0.048700
     38 H17         -1.7460     5.2690    10.0540 ho         1 VGT       0.452000
     39 S1          -5.6840     1.3680    17.3840 sy         1 VGT       1.131600
@<TRIPOS>BOND
     1     1     7 ar  
     2     1    10 ar  
     3     1    22 1   
     4     2    18 1   
     5     2    19 1   
     6     2    23 1   
     7     2    24 1   
     8     3    15 ar  
     9     3    17 ar  
    10     3    18 1   
    11     4    39 2   
    12     5    19 1   
    13     5    21 1   
    14     5    25 1   
    15     5    26 1   
    16     6     7 ar  
    17     6     8 ar  
    18     6    27 1   
    19     7    28 1   
    20     8     9 ar  
    21     8    29 1   
    22     9    10 ar  
    23     9    30 1   
    24    10    21 1   
    25    11    39 2   
    26    12    31 1   
    27    12    32 1   
    28    12    39 1   
    29    13    14 ar  
    30    13    16 ar  
    31    13    39 1   
    32    14    15 ar  
    33    14    33 1   
    34    15    34 1   
    35    16    17 ar  
    36    16    35 1   
    37    17    36 1   
    38    19    20 1   
    39    19    37 1   
    40    20    38 1   
@<TRIPOS>SUBSTRUCTURE
     1 VGT         1 TEMP              0 ****  ****    0 ROOT
