@<TRIPOS>MOLECULE
VGT
   39    40     1     0     0
SMALL
bcc


@<TRIPOS>ATOM
      1 C7          -1.7020    11.2230    13.3190 ca         1 VGT      -0.112000
      2 C8          -2.2860     5.5670    13.2290 c3         1 VGT      -0.055300
      3 C9          -4.5030     4.1700    14.2190 ca         1 VGT       0.081900
      4 O1          -4.9380     0.7850    18.1390 o          1 VGT      -0.616300
      5 C1          -2.3190     8.0770    12.6530 c3         1 VGT       0.070700
      6 C5          -0.0480    12.8420    13.9940 ca         1 VGT      -0.121000
      7 C6          -1.1160    12.4740    13.1850 ca         1 VGT      -0.125500
      8 C4           0.4390    11.9440    14.9350 ca         1 VGT      -0.125500
      9 C3          -0.1260    10.6810    15.0580 ca         1 VGT      -0.112000
     10 C2          -1.2000    10.3160    14.2500 ca         1 VGT       0.093900
     11 O2          -7.2790     1.0600    17.2960 o          1 VGT      -0.616300
     12 N           -5.5720    -0.4840    16.1050 n8         1 VGT      -0.892700
     13 C12         -5.3460     2.1470    15.9230 ca         1 VGT      -0.287500
     14 C11         -6.2880     2.9260    15.2650 ca         1 VGT      -0.010000
     15 C10         -5.8660     3.9320    14.4170 ca         1 VGT      -0.156500
     16 C13         -3.9890     2.3760    15.7420 ca         1 VGT      -0.010000
     17 C14         -3.5680     3.3830    14.8930 ca         1 VGT      -0.156500
     18 S           -4.0900     5.4470    13.0940 ss         1 VGT      -0.193000
     19 C           -1.7720     6.6900    12.3290 c3         1 VGT       0.170100
     20 O           -2.1140     6.4640    10.9830 oh         1 VGT      -0.590800
     21 SE          -1.9850     8.5980    14.5170 ss         1 VGT      -0.398000
     22 H1          -2.5510    10.9670    12.6980 ha         1 VGT       0.140000
     23 H2          -1.8290     4.6270    12.9150 h1         1 VGT       0.076200
     24 H3          -2.0000     5.7380    14.2680 h1         1 VGT       0.076200
     25 H4          -1.8210     8.8070    12.0130 h1         1 VGT       0.082700
     26 H5          -3.3900     8.1340    12.4530 h1         1 VGT       0.082700
     27 H6           0.4000    13.8210    13.8920 ha         1 VGT       0.134000
     28 H7          -1.5070    13.1680    12.4520 ha         1 VGT       0.134500
     29 H8           1.2720    12.2190    15.5680 ha         1 VGT       0.134500
     30 H9           0.2830     9.9840    15.7790 ha         1 VGT       0.140000
     31 H10         -5.5240    -1.3190    16.6830 hn         1 VGT       0.416800
     32 H11         -6.2560    -0.6090    15.3650 hn         1 VGT       0.416800
     33 H12         -7.3470     2.7610    15.4080 ha         1 VGT       0.154500
     34 H13         -6.6040     4.5380    13.9070 ha         1 VGT       0.141500
     35 H14         -3.2500     1.7750    16.2560 ha         1 VGT       0.154500
     36 H15         -2.5060     3.5400    14.7690 ha         1 VGT       0.141500
     37 H16         -0.6820     6.7100    12.4670 h1         1 VGT       0.048700
     38 H17         -1.7210     5.6320    10.6970 ho         1 VGT       0.413000
     39 S1          -5.8630     0.8640    17.0190 sy         1 VGT       1.273200
@<TRIPOS>BOND
     1     1     7 ar  
     2     1    10 ar  
     3     1    22 1   
     4     2    18 1   
     5     2    19 1   
     6     2    23 1   
     7     2    24 1   
     8     3    15 ar  
     9     3    17 ar  
    10     3    18 1   
    11     4    39 2   
    12     5    19 1   
    13     5    21 1   
    14     5    25 1   
    15     5    26 1   
    16     6     7 ar  
    17     6     8 ar  
    18     6    27 1   
    19     7    28 1   
    20     8     9 ar  
    21     8    29 1   
    22     9    10 ar  
    23     9    30 1   
    24    10    21 1   
    25    11    39 2   
    26    12    31 1   
    27    12    32 1   
    28    12    39 1   
    29    13    14 ar  
    30    13    16 ar  
    31    13    39 1   
    32    14    15 ar  
    33    14    33 1   
    34    15    34 1   
    35    16    17 ar  
    36    16    35 1   
    37    17    36 1   
    38    19    20 1   
    39    19    37 1   
    40    20    38 1   
@<TRIPOS>SUBSTRUCTURE
     1 VGT         1 TEMP              0 ****  ****    0 ROOT
