@<TRIPOS>MOLECULE
VGV
   32    33     1     0     0
SMALL
abcg2


@<TRIPOS>ATOM
      1 C15         -4.1620     8.1620     9.8230 c6         1 VGV      -0.073900
      2 C17         -5.7710     9.7130    11.0120 c6         1 VGV      -0.073900
      3 C05         -5.3820     2.9350    15.8810 cc         1 VGV       0.107300
      4 C08         -4.7650     4.8640    14.6900 cc         1 VGV       0.519300
      5 C11         -5.5050     6.3860    12.9570 c          1 VGV       0.603100
      6 C12         -5.0730     7.5510    12.1060 c6         1 VGV      -0.129700
      7 C14         -4.5920     7.0160    10.7400 c6         1 VGV      -0.067400
      8 C16         -5.2670     9.2060     9.6610 c6         1 VGV      -0.077400
      9 C18         -6.2090     8.5650    11.9210 c6         1 VGV      -0.067400
     10 N04         -5.4390     0.2310    15.7870 n8         1 VGV      -1.117100
     11 N06         -4.2190     3.3730    16.2360 nd         1 VGV      -0.192000
     12 N07         -3.8510     4.4930    15.5550 nd         1 VGV      -0.409000
     13 N10         -4.5900     5.9590    13.8910 ns         1 VGV      -0.469400
     14 O02         -7.4950     1.5310    16.1830 o          1 VGV      -0.535500
     15 O03         -5.7090     1.3910    17.9400 o          1 VGV      -0.535500
     16 O13         -6.5730     5.8020    12.8300 o          1 VGV      -0.563100
     17 S09         -6.1810     3.8630    14.6500 ss         1 VGV      -0.054800
     18 H1          -3.8900     7.7540     8.8470 hc         1 VGV       0.044200
     19 H2          -4.9780    10.2860    11.5040 hc         1 VGV       0.044200
     20 H3          -5.4130     6.4590    10.2770 hc         1 VGV       0.054700
     21 H4          -4.8940    10.0460     9.0680 hc         1 VGV       0.045200
     22 H5          -6.5250     8.9460    12.8940 hc         1 VGV       0.054700
     23 H6          -4.6080    -0.2020    16.1590 hn         1 VGV       0.521000
     24 H7          -5.8540    -0.1020    14.9310 hn         1 VGV       0.521000
     25 H8          -3.7140     6.4560    13.9950 hn         1 VGV       0.349500
     26 H9          -3.2640     8.6380    10.2300 hc         1 VGV       0.044200
     27 H10         -6.6090    10.3980    10.8640 hc         1 VGV       0.044200
     28 H11         -4.2300     8.0470    12.5950 hc         1 VGV       0.059700
     29 H12         -3.7660     6.3170    10.8870 hc         1 VGV       0.054700
     30 H13         -6.1010     8.7680     9.1020 hc         1 VGV       0.045200
     31 H14         -7.0690     8.0540    11.4790 hc         1 VGV       0.054700
     32 S01         -6.1080     1.4610    16.5610 sy         1 VGV       1.198200
@<TRIPOS>BOND
     1     1     7 1   
     2     1     8 1   
     3     1    18 1   
     4     1    26 1   
     5     2     8 1   
     6     2     9 1   
     7     2    19 1   
     8     2    27 1   
     9     3    11 2   
    10     3    17 1   
    11     3    32 1   
    12     4    12 2   
    13     4    13 1   
    14     4    17 1   
    15     5     6 1   
    16     5    13 1   
    17     5    16 2   
    18     6     7 1   
    19     6     9 1   
    20     6    28 1   
    21     7    20 1   
    22     7    29 1   
    23     8    21 1   
    24     8    30 1   
    25     9    22 1   
    26     9    31 1   
    27    10    23 1   
    28    10    24 1   
    29    10    32 1   
    30    11    12 1   
    31    13    25 1   
    32    14    32 2   
    33    15    32 2   
@<TRIPOS>SUBSTRUCTURE
     1 VGV         1 TEMP              0 ****  ****    0 ROOT
