@<TRIPOS>MOLECULE
VGV
   32    33     1     0     0
SMALL
No Charge or Current Charge


@<TRIPOS>ATOM
      1 C15         -4.0250     8.4370     9.7670 c6         1 VGV      -0.073900
      2 C17         -5.6330     9.8300    11.1910 c6         1 VGV      -0.073900
      3 C05         -5.4640     2.8450    15.9200 cc         1 VGV       0.107300
      4 C08         -4.9840     4.7620    14.5830 cc         1 VGV       0.519300
      5 C11         -5.5440     6.1410    12.6010 c          1 VGV       0.603100
      6 C12         -5.0950     7.4180    11.8580 c6         1 VGV      -0.129700
      7 C14         -4.5290     7.1350    10.4390 c6         1 VGV      -0.067400
      8 C16         -5.1240     9.5300     9.7580 c6         1 VGV      -0.077400
      9 C18         -6.1610     8.5480    11.8830 c6         1 VGV      -0.067400
     10 N04         -5.2920     0.1060    15.9370 n8         1 VGV      -1.117100
     11 N06         -4.4370     3.5440    16.3930 nd         1 VGV      -0.192000
     12 N07         -4.1640     4.6560    15.6160 nd         1 VGV      -0.409000
     13 N10         -4.8230     5.8240    13.7250 ns         1 VGV      -0.469400
     14 O02         -7.4840     1.0780    16.2940 o          1 VGV      -0.535500
     15 O03         -5.6480     1.2010    18.0730 o          1 VGV      -0.535500
     16 O13         -6.4820     5.4700    12.1970 o          1 VGV      -0.563100
     17 S09         -6.1790     3.4980    14.4720 ss         1 VGV      -0.054800
     18 H1          -3.7020     8.2250     8.7390 hc         1 VGV       0.044200
     19 H2          -4.8200    10.2660    11.7880 hc         1 VGV       0.044200
     20 H3          -5.3100     6.6790     9.8140 hc         1 VGV       0.054700
     21 H4          -4.7290    10.4500     9.3040 hc         1 VGV       0.045200
     22 H5          -6.4470     8.7770    12.9190 hc         1 VGV       0.054700
     23 H6          -6.0850    -0.4920    15.7060 hn         1 VGV       0.521000
     24 H7          -4.9160    -0.3650    16.7590 hn         1 VGV       0.521000
     25 H8          -4.0730     6.4610    13.9490 hn         1 VGV       0.349500
     26 H9          -3.1390     8.8100    10.3000 hc         1 VGV       0.044200
     27 H10         -6.4290    10.5870    11.1520 hc         1 VGV       0.044200
     28 H11         -4.2450     7.8070    12.4370 hc         1 VGV       0.059700
     29 H12         -3.7090     6.4050    10.4960 hc         1 VGV       0.054700
     30 H13         -5.9630     9.2070     9.1260 hc         1 VGV       0.045200
     31 H14         -7.0740     8.2070    11.3750 hc         1 VGV       0.054700
     32 S01         -6.0960     1.3210    16.6850 sy         1 VGV       1.198200
@<TRIPOS>BOND
     1     1     7 1   
     2     1     8 1   
     3     1    18 1   
     4     1    26 1   
     5     2     8 1   
     6     2     9 1   
     7     2    19 1   
     8     2    27 1   
     9     3    11 2   
    10     3    17 1   
    11     3    32 1   
    12     4    12 2   
    13     4    13 1   
    14     4    17 1   
    15     5     6 1   
    16     5    13 1   
    17     5    16 2   
    18     6     7 1   
    19     6     9 1   
    20     6    28 1   
    21     7    20 1   
    22     7    29 1   
    23     8    21 1   
    24     8    30 1   
    25     9    22 1   
    26     9    31 1   
    27    10    23 1   
    28    10    24 1   
    29    10    32 1   
    30    11    12 1   
    31    13    25 1   
    32    14    32 2   
    33    15    32 2   
@<TRIPOS>SUBSTRUCTURE
     1 VGV         1 TEMP              0 ****  ****    0 ROOT
