@<TRIPOS>MOLECULE
VGW
   59    63     1     0     0
SMALL
No Charge or Current Charge


@<TRIPOS>ATOM
      1 C1         -25.2300     9.9700    16.2020 ca         1 VGW       0.212000
      2 C2         -24.8080    11.1070    16.9090 ca         1 VGW      -0.065000
      3 C3         -23.8240    11.0180    17.9240 ca         1 VGW      -0.136800
      4 C4         -23.2370     9.7670    18.2160 ca         1 VGW       0.127600
      5 C5         -23.7000     8.6180    17.5330 ca         1 VGW      -0.164000
      6 C6         -21.8240    10.7970    20.0040 c          1 VGW       0.589200
      7 C7         -22.4560    12.0650    19.6610 cc         1 VGW      -0.437200
      8 C8         -23.3920    12.2040    18.6760 cd         1 VGW       0.294800
      9 C9         -23.2730    14.7750    18.5190 c3         1 VGW       0.223900
     10 C10        -21.7430    14.6920    18.2320 ca         1 VGW       0.112300
     11 C11        -20.0450    14.0020    16.8250 ca         1 VGW       0.116400
     12 C12        -19.0880    14.5250    17.7130 ca         1 VGW      -0.145300
     13 C13        -19.5720    15.1390    18.8820 ca         1 VGW       0.116400
     14 C14        -17.6180    14.4240    17.4310 cx         1 VGW      -0.084400
     15 N2         -21.3660    14.0860    17.0770 nb         1 VGW      -0.164500
     16 C15        -16.7320    15.6470    17.4270 cx         1 VGW      -0.122400
     17 C16        -17.0290    14.9270    16.1340 cx         1 VGW      -0.122400
     18 C17        -23.6170    15.3860    19.9070 c3         1 VGW      -0.103100
     19 C18        -23.9350    15.6540    17.4290 c3         1 VGW      -0.103100
     20 C20        -26.5600     9.3340    14.0920 ca         1 VGW       0.423000
     21 C21        -25.5850     8.5670    13.4520 ca         1 VGW      -0.249000
     22 C22        -25.9320     7.8220    12.3240 ca         1 VGW       0.404900
     23 N3         -20.8910    15.2270    19.1430 nb         1 VGW      -0.164500
     24 C23        -28.1150     8.5660    12.4240 ca         1 VGW       0.519000
     25 N5         -27.1780     7.8130    11.8110 nb         1 VGW      -0.697000
     26 C24        -27.8570     9.3490    13.5600 ca         1 VGW      -0.176000
     27 C25        -28.9060    10.1200    14.1530 cg         1 VGW       0.337000
     28 N6         -29.7510    10.7600    14.6400 n1         1 VGW      -0.456000
     29 N4         -26.2190    10.0980    15.2150 nu         1 VGW      -0.974000
     30 O          -20.9890    10.7350    20.8960 o          1 VGW      -0.565000
     31 N          -22.2340     9.6760    19.2490 n          1 VGW      -0.286000
     32 C          -24.6840     8.7200    16.5360 ca         1 VGW      -0.062000
     33 H1         -25.2520    12.0630    16.6510 ha         1 VGW       0.117000
     34 H2         -24.7850    13.4220    17.8930 hn         1 VGW       0.488000
     35 H3         -23.3100     7.6310    17.7590 ha         1 VGW       0.129000
     36 H4         -22.1240    12.8940    20.2630 ha         1 VGW       0.215000
     37 H5         -19.7530    13.5090    15.8990 h4         1 VGW       0.029100
     38 H6         -18.8960    15.5670    19.6220 h4         1 VGW       0.029100
     39 H7         -17.1850    13.5120    17.8390 hc         1 VGW       0.095700
     40 H8         -15.7320    15.5500    17.8440 hc         1 VGW       0.075450
     41 H9         -17.1980    16.6170    17.5830 hc         1 VGW       0.075450
     42 H10        -17.6950    15.4150    15.4250 hc         1 VGW       0.075450
     43 H11        -16.2300    14.3450    15.6810 hc         1 VGW       0.075450
     44 H12        -23.1840    14.8060    20.7280 hc         1 VGW       0.052700
     45 H13        -23.2430    16.4140    19.9850 hc         1 VGW       0.052700
     46 H14        -24.7020    15.4170    20.0610 hc         1 VGW       0.052700
     47 H15        -25.0100    15.7710    17.6090 hc         1 VGW       0.052700
     48 H16        -23.4850    16.6540    17.4180 hc         1 VGW       0.052700
     49 H17        -23.8060    15.2180    16.4310 hc         1 VGW       0.052700
     50 H18        -20.7240     8.4650    20.1970 h1         1 VGW       0.055033
     51 H19        -22.2870     7.6610    19.9180 h1         1 VGW       0.055033
     52 H20        -21.1710     7.9730    18.5540 h1         1 VGW       0.055033
     53 H21        -24.5600     8.5550    13.8030 ha         1 VGW       0.140000
     54 H22        -25.1880     7.2170    11.8070 h4         1 VGW       0.027100
     55 H23        -26.8210    10.9140    15.3410 hn         1 VGW       0.512000
     56 H24        -25.0310     7.8200    16.0380 ha         1 VGW       0.130000
     57 N1         -23.9320    13.4490    18.4460 nu         1 VGW      -0.813200
     58 C19        -21.5640     8.3710    19.4980 c3         1 VGW       0.068300
     59 Cl         -29.7140     8.4990    11.6810 cl         1 VGW      -0.146000
@<TRIPOS>BOND
     1     1     2 ar  
     2     1    29 1   
     3     1    32 ar  
     4     2     3 ar  
     5     2    33 1   
     6     3     4 ar  
     7     3     8 1   
     8     4     5 ar  
     9     4    31 1   
    10     5    32 ar  
    11     5    35 1   
    12     6     7 1   
    13     6    30 2   
    14     6    31 1   
    15     7     8 2   
    16     7    36 1   
    17     8    57 1   
    18     9    10 1   
    19     9    18 1   
    20     9    19 1   
    21     9    57 1   
    22    10    15 ar  
    23    10    23 ar  
    24    11    12 ar  
    25    11    15 ar  
    26    11    37 1   
    27    12    13 ar  
    28    12    14 1   
    29    13    23 ar  
    30    13    38 1   
    31    14    16 1   
    32    14    17 1   
    33    14    39 1   
    34    16    17 1   
    35    16    40 1   
    36    16    41 1   
    37    17    42 1   
    38    17    43 1   
    39    18    44 1   
    40    18    45 1   
    41    18    46 1   
    42    19    47 1   
    43    19    48 1   
    44    19    49 1   
    45    20    21 ar  
    46    20    26 ar  
    47    20    29 1   
    48    21    22 ar  
    49    21    53 1   
    50    22    25 ar  
    51    22    54 1   
    52    24    25 ar  
    53    24    26 ar  
    54    24    59 1   
    55    26    27 1   
    56    27    28 3   
    57    29    55 1   
    58    31    58 1   
    59    32    56 1   
    60    34    57 1   
    61    50    58 1   
    62    51    58 1   
    63    52    58 1   
@<TRIPOS>SUBSTRUCTURE
     1 VGW         1 TEMP              0 ****  ****    0 ROOT
