@<TRIPOS>MOLECULE
VGW
   59    63     1     0     0
SMALL
abcg2


@<TRIPOS>ATOM
      1 C1         -25.6020     9.7990    16.5210 ca         1 VGW       0.212000
      2 C2         -24.9290    10.9230    16.9500 ca         1 VGW      -0.065000
      3 C3         -23.9040    10.8480    17.8980 ca         1 VGW      -0.136800
      4 C4         -23.5140     9.5830    18.3810 ca         1 VGW       0.127600
      5 C5         -24.2160     8.4480    17.9410 ca         1 VGW      -0.164000
      6 C6         -21.7220    10.5430    19.6890 c          1 VGW       0.589200
      7 C7         -22.1480    11.8320    19.2350 cc         1 VGW      -0.437200
      8 C8         -23.1990    12.0300    18.3840 cd         1 VGW       0.294800
      9 C9         -23.0900    14.5370    18.3720 c3         1 VGW       0.223900
     10 C10        -21.5890    14.6180    18.1110 ca         1 VGW       0.112300
     11 C11        -19.8560    14.2390    16.7080 ca         1 VGW       0.116400
     12 C12        -18.9580    14.8050    17.6060 ca         1 VGW      -0.145300
     13 C13        -19.5310    15.2850    18.7740 ca         1 VGW       0.116400
     14 C14        -17.4980    14.8740    17.3500 cx         1 VGW      -0.084400
     15 N2         -21.1540    14.1480    16.9500 nb         1 VGW      -0.164500
     16 C15        -16.8110    16.2040    17.2660 cx         1 VGW      -0.122400
     17 C16        -16.9820    15.3700    16.0340 cx         1 VGW      -0.122400
     18 C17        -23.4600    14.8320    19.8270 c3         1 VGW      -0.103100
     19 C18        -23.7540    15.5850    17.4700 c3         1 VGW      -0.103100
     20 C20        -26.6390     9.3800    14.3490 ca         1 VGW       0.423000
     21 C21        -25.5410     8.6640    13.8380 ca         1 VGW      -0.249000
     22 C22        -25.6100     8.1450    12.5710 ca         1 VGW       0.404900
     23 N3         -20.8290    15.1940    19.0300 nb         1 VGW      -0.164500
     24 C23        -27.6800     8.9350    12.2160 ca         1 VGW       0.519000
     25 N5         -26.6630     8.2690    11.7520 nb         1 VGW      -0.697000
     26 C24        -27.7520     9.5130    13.4850 ca         1 VGW      -0.176000
     27 C25        -28.9070    10.2170    13.9060 cg         1 VGW       0.337000
     28 N6         -29.8310    10.7960    14.2820 n1         1 VGW      -0.456000
     29 N4         -26.6490     9.9210    15.5800 nu         1 VGW      -0.974000
     30 O          -20.7580    10.3900    20.4350 o          1 VGW      -0.565000
     31 N          -22.4660     9.4510    19.2610 n          1 VGW      -0.286000
     32 C          -25.2510     8.5550    17.0410 ca         1 VGW      -0.062000
     33 H1         -25.2190    11.8680    16.5090 ha         1 VGW       0.117000
     34 H2         -24.4800    13.2890    17.4620 hn         1 VGW       0.488000
     35 H3         -23.9610     7.4660    18.3080 ha         1 VGW       0.129000
     36 H4         -21.5750    12.6550    19.6340 ha         1 VGW       0.215000
     37 H5         -19.5070    13.8510    15.7560 h4         1 VGW       0.029100
     38 H6         -18.9160    15.7630    19.5310 h4         1 VGW       0.029100
     39 H7         -16.9270    14.0760    17.8140 hc         1 VGW       0.095700
     40 H8         -15.8230    16.2900    17.6990 hc         1 VGW       0.075450
     41 H9         -17.4220    17.0930    17.3620 hc         1 VGW       0.075450
     42 H10        -17.7070    15.6990    15.2990 hc         1 VGW       0.075450
     43 H11        -16.1130    14.8820    15.6160 hc         1 VGW       0.075450
     44 H12        -23.0070    14.1320    20.5270 hc         1 VGW       0.052700
     45 H13        -23.1540    15.8360    20.1130 hc         1 VGW       0.052700
     46 H14        -24.5430    14.7640    19.9330 hc         1 VGW       0.052700
     47 H15        -24.8370    15.5710    17.6070 hc         1 VGW       0.052700
     48 H16        -23.3980    16.5810    17.7250 hc         1 VGW       0.052700
     49 H17        -23.5350    15.3970    16.4190 hc         1 VGW       0.052700
     50 H18        -21.2790     8.2280    20.4400 h1         1 VGW       0.055033
     51 H19        -22.9390     7.6600    20.2570 h1         1 VGW       0.055033
     52 H20        -21.7850     7.4860    18.9210 h1         1 VGW       0.055033
     53 H21        -24.6420     8.5280    14.4220 ha         1 VGW       0.140000
     54 H22        -24.7650     7.5960    12.1740 h4         1 VGW       0.027100
     55 H23        -27.4140    10.5300    15.8340 hn         1 VGW       0.512000
     56 H24        -25.7860     7.6650    16.7350 ha         1 VGW       0.130000
     57 N1         -23.6020    13.2410    17.9500 nu         1 VGW      -0.813200
     58 C19        -22.1010     8.1300    19.7420 c3         1 VGW       0.068300
     59 CL         -29.0400     9.1100    11.1650 cl         1 VGW      -0.146000
@<TRIPOS>BOND
     1     1     2 ar  
     2     1    29 1   
     3     1    32 ar  
     4     2     3 ar  
     5     2    33 1   
     6     3     4 ar  
     7     3     8 1   
     8     4     5 ar  
     9     4    31 1   
    10     5    32 ar  
    11     5    35 1   
    12     6     7 1   
    13     6    30 2   
    14     6    31 1   
    15     7     8 2   
    16     7    36 1   
    17     8    57 1   
    18     9    10 1   
    19     9    18 1   
    20     9    19 1   
    21     9    57 1   
    22    10    15 ar  
    23    10    23 ar  
    24    11    12 ar  
    25    11    15 ar  
    26    11    37 1   
    27    12    13 ar  
    28    12    14 1   
    29    13    23 ar  
    30    13    38 1   
    31    14    16 1   
    32    14    17 1   
    33    14    39 1   
    34    16    17 1   
    35    16    40 1   
    36    16    41 1   
    37    17    42 1   
    38    17    43 1   
    39    18    44 1   
    40    18    45 1   
    41    18    46 1   
    42    19    47 1   
    43    19    48 1   
    44    19    49 1   
    45    20    21 ar  
    46    20    26 ar  
    47    20    29 1   
    48    21    22 ar  
    49    21    53 1   
    50    22    25 ar  
    51    22    54 1   
    52    24    25 ar  
    53    24    26 ar  
    54    24    59 1   
    55    26    27 1   
    56    27    28 3   
    57    29    55 1   
    58    31    58 1   
    59    32    56 1   
    60    34    57 1   
    61    50    58 1   
    62    51    58 1   
    63    52    58 1   
@<TRIPOS>SUBSTRUCTURE
     1 VGW         1 TEMP              0 ****  ****    0 ROOT
