@<TRIPOS>MOLECULE
VGX
   13    12     1     0     0
SMALL
No Charge or Current Charge


@<TRIPOS>ATOM
      1 C01          2.0470    -0.2470    -0.2300 c3         1 VGX       0.160600
      2 C02          1.0070     0.5070     0.6100 c3         1 VGX      -0.196400
      3 C03         -0.3150    -0.2780     0.6380 c          1 VGX       0.428100
      4 C04         -1.4210     0.0830    -0.4930 c          1 VGX       0.649000
      5 O05         -2.1190    -0.8250    -0.9390 o          1 VGX      -0.696500
      6 O06         -1.5340     1.2510    -0.8570 o          1 VGX      -0.696500
      7 O07         -0.4960    -1.1580     1.4850 o          1 VGX      -0.573100
      8 O1           3.2610     0.5040    -0.2570 oh         1 VGX      -0.674000
      9 H1           2.2220    -1.2390     0.2060 h1         1 VGX       0.015700
     10 H2           1.6620    -0.3860    -1.2500 h1         1 VGX       0.015700
     11 H3           1.3880     0.6260     1.6310 hc         1 VGX       0.074200
     12 H4           0.8520     1.4820     0.1360 hc         1 VGX       0.074200
     13 H6           3.9020    -0.0090    -0.7970 ho         1 VGX       0.418000
@<TRIPOS>BOND
     1     1     2 1   
     2     1     8 1   
     3     1     9 1   
     4     1    10 1   
     5     2     3 1   
     6     2    11 1   
     7     2    12 1   
     8     3     4 1   
     9     3     7 2   
    10     4     5 1   
    11     4     6 1   
    12     8    13 1   
@<TRIPOS>SUBSTRUCTURE
     1 VGX         1 TEMP              0 ****  ****    0 ROOT
