@<TRIPOS>MOLECULE
VGX
   13    12     1     0     0
SMALL
abcg2


@<TRIPOS>ATOM
      1 C01          2.2360    -0.3380    -0.0220 c3         1 VGX       0.160600
      2 C02          0.9380     0.4410    -0.0100 c3         1 VGX      -0.196400
      3 C03         -0.2890    -0.4280     0.0260 c          1 VGX       0.428100
      4 C04         -1.6730     0.2860     0.0110 c          1 VGX       0.649000
      5 O05         -2.6590    -0.4610    -0.0330 o          1 VGX      -0.696500
      6 O06         -1.6330     1.5280     0.0440 o          1 VGX      -0.696500
      7 O07         -0.2200    -1.6350     0.0660 o          1 VGX      -0.573100
      8 O1           3.3000     0.5910    -0.0610 oh         1 VGX      -0.674000
      9 H1           2.2960    -0.9750     0.8680 h1         1 VGX       0.015700
     10 H2           2.2600    -1.0060    -0.8910 h1         1 VGX       0.015700
     11 H3           0.9030     1.1180     0.8500 hc         1 VGX       0.074200
     12 H4           0.8710     1.0920    -0.8880 hc         1 VGX       0.074200
     13 H6           4.1250     0.0980    -0.0770 ho         1 VGX       0.418000
@<TRIPOS>BOND
     1     1     2 1   
     2     1     8 1   
     3     1     9 1   
     4     1    10 1   
     5     2     3 1   
     6     2    11 1   
     7     2    12 1   
     8     3     4 1   
     9     3     7 2   
    10     4     5 1   
    11     4     6 1   
    12     8    13 1   
@<TRIPOS>SUBSTRUCTURE
     1 VGX         1 TEMP              0 ****  ****    0 ROOT
