@<TRIPOS>MOLECULE
VGY
   53    56     1     0     0
SMALL
No Charge or Current Charge


@<TRIPOS>ATOM
      1 N14        -18.9050    -2.5500   -25.5620 nb         1 VGY      -0.158000
      2 C13        -18.0470    -2.0570   -26.4760 ca         1 VGY       0.114400
      3 C18        -19.3420    -3.7790   -23.4310 c3         1 VGY       0.148700
      4 C17        -16.1980    -2.8920   -25.2040 ca         1 VGY       0.114400
      5 C15        -18.3730    -3.2000   -24.4980 ca         1 VGY       0.136300
      6 C19        -19.1950    -5.3170   -23.3390 c3         1 VGY      -0.118600
      7 C20        -19.0870    -3.1250   -22.0520 c3         1 VGY      -0.118600
      8 C23        -11.3790    -1.9080   -25.7370 c3         1 VGY       0.281800
      9 C24        -10.9880    -2.9250   -26.8140 ca         1 VGY      -0.158300
     10 C11        -12.1400    -0.3790   -27.6220 ca         1 VGY       0.375000
     11 C12        -16.6420    -2.1950   -26.3560 cp         1 VGY      -0.141000
     12 C27        -10.2840    -4.7780   -28.8370 ca         1 VGY      -0.077000
     13 C2         -15.6910    -1.6460   -27.3750 cp         1 VGY      -0.039000
     14 C3         -16.0730    -1.4960   -28.7270 ca         1 VGY      -0.082000
     15 C4         -15.1830    -0.9650   -29.6730 ca         1 VGY      -0.090000
     16 C5         -14.3790    -1.2560   -27.0170 ca         1 VGY      -0.063000
     17 C6         -13.4640    -0.7480   -27.9700 ca         1 VGY      -0.099000
     18 C7         -13.8810    -0.5790   -29.3130 ca         1 VGY       0.294000
     19 N8         -13.0740    -0.0510   -30.2580 nb         1 VGY      -0.679000
     20 C9         -11.8290     0.3360   -29.9050 ca         1 VGY       0.400900
     21 C10        -11.3210     0.1990   -28.6080 ca         1 VGY      -0.051000
     22 N16        -17.0490    -3.3900   -24.2860 nb         1 VGY      -0.158000
     23 O21        -20.7150    -3.5160   -23.7620 oh         1 VGY      -0.632000
     24 C25         -9.7550    -2.8150   -27.4960 ca         1 VGY      -0.076000
     25 C26         -9.4070    -3.7350   -28.5000 ca         1 VGY      -0.119000
     26 C28        -11.5110    -4.9000   -28.1650 ca         1 VGY      -0.147000
     27 C29        -11.8600    -3.9810   -27.1620 ca         1 VGY       0.178000
     28 C30        -10.3220    -1.7870   -24.6240 c3         1 VGY      -0.106100
     29 F31        -13.0470    -4.1310   -26.5330 f          1 VGY      -0.186000
     30 H36        -18.4960    -1.5280   -27.3150 h4         1 VGY       0.029600
     31 H37        -15.1410    -3.0680   -25.0160 h4         1 VGY       0.029600
     32 H38        -19.9040    -5.7410   -22.6170 hc         1 VGY       0.048033
     33 H39        -19.3820    -5.7820   -24.3150 hc         1 VGY       0.048033
     34 H40        -18.1850    -5.5980   -23.0190 hc         1 VGY       0.048033
     35 H42        -19.7930    -3.4960   -21.2990 hc         1 VGY       0.048033
     36 H43        -18.0730    -3.3420   -21.6940 hc         1 VGY       0.048033
     37 H41        -19.1960    -2.0350   -22.1140 hc         1 VGY       0.048033
     38 H46        -12.3020    -2.2500   -25.2500 h1         1 VGY       0.075700
     39 H49        -10.0140    -5.4900   -29.6150 ha         1 VGY       0.121000
     40 H32        -17.0670    -1.7940   -29.0530 ha         1 VGY       0.121000
     41 H33        -15.5060    -0.8480   -30.7040 ha         1 VGY       0.136000
     42 H34        -14.0880    -1.3230   -25.9750 ha         1 VGY       0.123000
     43 H35        -11.2170     0.7690   -30.6960 h4         1 VGY       0.031100
     44 H44        -21.2640    -3.9070   -23.0500 ho         1 VGY       0.441000
     45 H45        -10.8250     0.0570   -26.1650 hn         1 VGY       0.475000
     46 H47         -9.0640    -2.0100   -27.2570 ha         1 VGY       0.121000
     47 H48         -8.4570    -3.6370   -29.0200 ha         1 VGY       0.123000
     48 H50        -12.1950    -5.7060   -28.4190 ha         1 VGY       0.135000
     49 H52        -10.6740    -1.1160   -23.8320 hc         1 VGY       0.050700
     50 H51        -10.1320    -2.7690   -24.1740 hc         1 VGY       0.050700
     51 H53         -9.3720    -1.3970   -25.0080 hc         1 VGY       0.050700
     52 N22        -11.5990    -0.5840   -26.3390 nu         1 VGY      -0.944200
     53 Cl1         -9.6690     0.7390   -28.2510 cl         1 VGY      -0.204000
@<TRIPOS>BOND
     1     1     2 ar  
     2     1     5 ar  
     3     2    11 ar  
     4     2    30 1   
     5     3     5 1   
     6     3     6 1   
     7     3     7 1   
     8     3    23 1   
     9     4    11 ar  
    10     4    22 ar  
    11     4    31 1   
    12     5    22 ar  
    13     6    32 1   
    14     6    33 1   
    15     6    34 1   
    16     7    35 1   
    17     7    36 1   
    18     7    37 1   
    19     8     9 1   
    20     8    28 1   
    21     8    38 1   
    22     8    52 1   
    23     9    24 ar  
    24     9    27 ar  
    25    10    17 ar  
    26    10    21 ar  
    27    10    52 1   
    28    11    13 1   
    29    12    25 ar  
    30    12    26 ar  
    31    12    39 1   
    32    13    14 ar  
    33    13    16 ar  
    34    14    15 ar  
    35    14    40 1   
    36    15    18 ar  
    37    15    41 1   
    38    16    17 ar  
    39    16    42 1   
    40    17    18 ar  
    41    18    19 ar  
    42    19    20 ar  
    43    20    21 ar  
    44    20    43 1   
    45    21    53 1   
    46    23    44 1   
    47    24    25 ar  
    48    24    46 1   
    49    25    47 1   
    50    26    27 ar  
    51    26    48 1   
    52    27    29 1   
    53    28    49 1   
    54    28    50 1   
    55    28    51 1   
    56    45    52 1   
@<TRIPOS>SUBSTRUCTURE
     1 VGY         1 TEMP              0 ****  ****    0 ROOT
