@<TRIPOS>MOLECULE
VGY
   53    56     1     0     0
SMALL
abcg2


@<TRIPOS>ATOM
      1 N14        -18.7070    -2.4410   -25.5890 nb         1 VGY      -0.158000
      2 C13        -17.8560    -1.9590   -26.4840 ca         1 VGY       0.114400
      3 C18        -19.1410    -3.7760   -23.5760 c3         1 VGY       0.148700
      4 C17        -16.0920    -3.0720   -25.4210 ca         1 VGY       0.114400
      5 C15        -18.2120    -3.2130   -24.6350 ca         1 VGY       0.136300
      6 C19        -19.0760    -5.3060   -23.6050 c3         1 VGY      -0.118600
      7 C20        -18.7090    -3.2550   -22.2020 c3         1 VGY      -0.118600
      8 C23        -11.5080    -1.7960   -25.7150 c3         1 VGY       0.281800
      9 C24        -11.2380    -2.9290   -26.6820 ca         1 VGY      -0.158300
     10 C11        -12.0840    -0.2500   -27.6020 ca         1 VGY       0.375000
     11 C12        -16.4940    -2.2350   -26.4590 cp         1 VGY      -0.141000
     12 C27        -10.7240    -5.0580   -28.4380 ca         1 VGY      -0.077000
     13 C2         -15.5540    -1.6830   -27.4420 cp         1 VGY      -0.039000
     14 C3         -15.9380    -1.5430   -28.7960 ca         1 VGY      -0.082000
     15 C4         -15.1000    -0.9530   -29.6970 ca         1 VGY      -0.090000
     16 C5         -14.3000    -1.2690   -27.0560 ca         1 VGY      -0.063000
     17 C6         -13.3930    -0.6990   -27.9740 ca         1 VGY      -0.099000
     18 C7         -13.8250    -0.4850   -29.3080 ca         1 VGY       0.294000
     19 N8         -13.0910     0.1790   -30.2300 nb         1 VGY      -0.679000
     20 C9         -11.9430     0.6650   -29.8490 ca         1 VGY       0.400900
     21 C10        -11.4110     0.4830   -28.5660 ca         1 VGY      -0.051000
     22 N16        -16.9310    -3.5490   -24.5210 nb         1 VGY      -0.158000
     23 O21        -20.4410    -3.3320   -23.8890 oh         1 VGY      -0.632000
     24 C25        -10.3190    -2.8010   -27.7210 ca         1 VGY      -0.076000
     25 C26        -10.0610    -3.8480   -28.5930 ca         1 VGY      -0.119000
     26 C28        -11.6340    -5.2210   -27.4050 ca         1 VGY      -0.147000
     27 C29        -11.8620    -4.1590   -26.5510 ca         1 VGY       0.178000
     28 C30        -10.4400    -1.7550   -24.6280 c3         1 VGY      -0.106100
     29 F31        -12.7320    -4.3410   -25.5370 f          1 VGY      -0.186000
     30 H36        -18.2760    -1.3110   -27.2470 h4         1 VGY       0.029600
     31 H37        -15.0560    -3.3780   -25.3310 h4         1 VGY       0.029600
     32 H38        -19.7520    -5.7190   -22.8540 hc         1 VGY       0.048033
     33 H39        -19.3720    -5.6940   -24.5810 hc         1 VGY       0.048033
     34 H40        -18.0720    -5.6660   -23.3850 hc         1 VGY       0.048033
     35 H42        -19.3550    -3.6700   -21.4260 hc         1 VGY       0.048033
     36 H43        -17.6850    -3.5450   -21.9740 hc         1 VGY       0.048033
     37 H41        -18.7760    -2.1670   -22.1550 hc         1 VGY       0.048033
     38 H46        -12.4600    -1.9680   -25.2160 h1         1 VGY       0.075700
     39 H49        -10.5320    -5.8790   -29.1170 ha         1 VGY       0.121000
     40 H32        -16.9060    -1.9020   -29.1210 ha         1 VGY       0.121000
     41 H33        -15.4000    -0.8180   -30.7280 ha         1 VGY       0.136000
     42 H34        -14.0390    -1.3140   -26.0100 ha         1 VGY       0.123000
     43 H35        -11.3640     1.2170   -30.5820 h4         1 VGY       0.031100
     44 H44        -21.0350    -3.6870   -23.2190 ho         1 VGY       0.441000
     45 H45        -10.6830     0.0330   -26.2160 hn         1 VGY       0.475000
     46 H47         -9.7890    -1.8650   -27.8500 ha         1 VGY       0.121000
     47 H48         -9.3440    -3.7190   -29.3910 ha         1 VGY       0.123000
     48 H50        -12.1580    -6.1570   -27.2580 ha         1 VGY       0.135000
     49 H52        -10.6260    -0.9330   -23.9350 hc         1 VGY       0.050700
     50 H51        -10.4490    -2.6830   -24.0600 hc         1 VGY       0.050700
     51 H53         -9.4440    -1.6320   -25.0570 hc         1 VGY       0.050700
     52 N22        -11.5330    -0.4880   -26.3740 nu         1 VGY      -0.944200
     53 CL1         -9.8340     1.1230   -28.2420 cl         1 VGY      -0.204000
@<TRIPOS>BOND
     1     1     2 ar  
     2     1     5 ar  
     3     2    11 ar  
     4     2    30 1   
     5     3     5 1   
     6     3     6 1   
     7     3     7 1   
     8     3    23 1   
     9     4    11 ar  
    10     4    22 ar  
    11     4    31 1   
    12     5    22 ar  
    13     6    32 1   
    14     6    33 1   
    15     6    34 1   
    16     7    35 1   
    17     7    36 1   
    18     7    37 1   
    19     8     9 1   
    20     8    28 1   
    21     8    38 1   
    22     8    52 1   
    23     9    24 ar  
    24     9    27 ar  
    25    10    17 ar  
    26    10    21 ar  
    27    10    52 1   
    28    11    13 1   
    29    12    25 ar  
    30    12    26 ar  
    31    12    39 1   
    32    13    14 ar  
    33    13    16 ar  
    34    14    15 ar  
    35    14    40 1   
    36    15    18 ar  
    37    15    41 1   
    38    16    17 ar  
    39    16    42 1   
    40    17    18 ar  
    41    18    19 ar  
    42    19    20 ar  
    43    20    21 ar  
    44    20    43 1   
    45    21    53 1   
    46    23    44 1   
    47    24    25 ar  
    48    24    46 1   
    49    25    47 1   
    50    26    27 ar  
    51    26    48 1   
    52    27    29 1   
    53    28    49 1   
    54    28    50 1   
    55    28    51 1   
    56    45    52 1   
@<TRIPOS>SUBSTRUCTURE
     1 VGY         1 TEMP              0 ****  ****    0 ROOT
