@<TRIPOS>MOLECULE
VGZ
   37    38     1     0     0
SMALL
bcc


@<TRIPOS>ATOM
      1 C5         -34.2570     2.3590     0.6090 ca         1 VGZ      -0.144000
      2 C4         -35.3220     2.0710    -0.2260 ca         1 VGZ      -0.108000
      3 C3         -35.4370     0.8140    -0.8090 ca         1 VGZ      -0.197000
      4 C2         -34.4720    -0.1560    -0.5670 ca         1 VGZ       0.101100
      5 C1         -35.5630    -1.7680    -1.9280 c3         1 VGZ       0.129700
      6 C6         -33.2970     1.3880     0.8670 ca         1 VGZ      -0.099000
      7 C8         -31.1030    -0.7200     0.5760 c          1 VGZ       0.690700
      8 C10        -28.9720    -1.9760     0.5070 ca         1 VGZ      -0.058000
      9 C11        -28.1710    -3.0770     0.7500 ca         1 VGZ      -0.184000
     10 C12        -28.7090    -4.2020     1.3800 ca         1 VGZ       0.099600
     11 C13        -26.6600    -5.6130     1.5360 c          1 VGZ       0.676100
     12 C14        -26.2610    -6.9860     2.0140 c3         1 VGZ      -0.184100
     13 O1         -34.4910    -1.3980    -1.0850 os         1 VGZ      -0.333900
     14 C7         -33.3860     0.1340     0.2790 ca         1 VGZ       0.033600
     15 N1         -32.4510    -0.8830     0.5230 ns         1 VGZ      -0.470100
     16 O2         -30.5530     0.3540     0.4000 o          1 VGZ      -0.586100
     17 C9         -30.3190    -1.9540     0.8590 ca         1 VGZ      -0.184600
     18 O3         -25.8620    -4.8100     1.0930 o          1 VGZ      -0.567100
     19 C15        -30.0580    -4.1810     1.7490 ca         1 VGZ      -0.184000
     20 C16        -30.8480    -3.0790     1.4920 ca         1 VGZ      -0.058000
     21 H1         -34.1700     3.3330     1.0730 ha         1 VGZ       0.136000
     22 H2         -36.0780     2.8190    -0.4280 ha         1 VGZ       0.131000
     23 H3         -36.2780     0.6070    -1.4560 ha         1 VGZ       0.134000
     24 H4         -35.3800    -2.7990    -2.2230 h1         1 VGZ       0.041367
     25 H5         -36.5250    -1.7130    -1.4130 h1         1 VGZ       0.041367
     26 H6         -35.6050    -1.1480    -2.8270 h1         1 VGZ       0.041367
     27 H7         -32.4810     1.6090     1.5390 ha         1 VGZ       0.154000
     28 H8         -28.5330    -1.1140     0.0230 ha         1 VGZ       0.144000
     29 H9         -27.1370    -3.0510     0.4480 ha         1 VGZ       0.149500
     30 H10        -25.2400    -7.2040     1.7120 hc         1 VGZ       0.065700
     31 H11        -26.3170    -7.0330     3.1040 hc         1 VGZ       0.065700
     32 H12        -26.9220    -7.7570     1.6200 hc         1 VGZ       0.065700
     33 H13        -32.8050    -1.8260     0.4740 hn         1 VGZ       0.329500
     34 H14        -28.5440    -6.1070     2.0700 hn         1 VGZ       0.315500
     35 H15        -30.4920    -5.0380     2.2520 ha         1 VGZ       0.149500
     36 H16        -31.8780    -3.1070     1.8230 ha         1 VGZ       0.144000
     37 N2         -27.9950    -5.3610     1.6690 ns         1 VGZ      -0.479100
@<TRIPOS>BOND
     1     1     2 ar  
     2     1     6 ar  
     3     1    21 1   
     4     2     3 ar  
     5     2    22 1   
     6     3     4 ar  
     7     3    23 1   
     8     4    13 1   
     9     4    14 ar  
    10     5    13 1   
    11     5    24 1   
    12     5    25 1   
    13     5    26 1   
    14     6    14 ar  
    15     6    27 1   
    16     7    15 1   
    17     7    16 2   
    18     7    17 1   
    19     8     9 ar  
    20     8    17 ar  
    21     8    28 1   
    22     9    10 ar  
    23     9    29 1   
    24    10    19 ar  
    25    10    37 1   
    26    11    12 1   
    27    11    18 2   
    28    11    37 1   
    29    12    30 1   
    30    12    31 1   
    31    12    32 1   
    32    14    15 1   
    33    15    33 1   
    34    17    20 ar  
    35    19    20 ar  
    36    19    35 1   
    37    20    36 1   
    38    34    37 1   
@<TRIPOS>SUBSTRUCTURE
     1 VGZ         1 TEMP              0 ****  ****    0 ROOT
