@<TRIPOS>MOLECULE
VGZ
   37    38     1     0     0
SMALL
No Charge or Current Charge


@<TRIPOS>ATOM
      1 C5         -34.1660     2.6030    -0.1100 ca         1 VGZ      -0.126000
      2 C4         -35.4010     2.0950    -0.5390 ca         1 VGZ      -0.090000
      3 C3         -35.5780     0.7100    -0.6790 ca         1 VGZ      -0.179000
      4 C2         -34.5150    -0.1750    -0.3900 ca         1 VGZ       0.101100
      5 C1         -35.8780    -2.1650    -0.9490 c3         1 VGZ       0.152900
      6 C6         -33.1040     1.7310     0.1800 ca         1 VGZ      -0.081000
      7 C8         -30.9220    -0.4790     0.7520 c          1 VGZ       0.623700
      8 C10        -28.8080    -1.7360     1.3590 ca         1 VGZ      -0.040000
      9 C11        -28.0660    -2.9170     1.5270 ca         1 VGZ      -0.166000
     10 C12        -28.6490    -4.1730     1.2630 ca         1 VGZ       0.007000
     11 C13        -26.6690    -5.7230     1.8070 c          1 VGZ       0.609100
     12 C14        -26.3680    -7.2190     1.8150 c3         1 VGZ      -0.184100
     13 O1         -34.6520    -1.5470    -0.5160 os         1 VGZ      -0.357100
     14 C7         -33.2690     0.3330     0.0430 ca         1 VGZ      -0.059000
     15 N1         -32.2360    -0.6100     0.3200 ns         1 VGZ      -0.144000
     16 O2         -30.3950     0.6040     0.9880 o          1 VGZ      -0.586100
     17 C9         -30.1510    -1.7760     0.9220 ca         1 VGZ      -0.184600
     18 O3         -25.8200    -4.9020     2.1300 o          1 VGZ      -0.567100
     19 C15        -29.9840    -4.2180     0.8280 ca         1 VGZ      -0.166000
     20 C16        -30.7320    -3.0400     0.6580 ca         1 VGZ      -0.040000
     21 H1         -34.0310     3.6770    -0.0020 ha         1 VGZ       0.118000
     22 H2         -36.2210     2.7750    -0.7620 ha         1 VGZ       0.113000
     23 H3         -36.5450     0.3430    -1.0130 ha         1 VGZ       0.116000
     24 H4         -35.7640    -3.2560    -0.9770 h1         1 VGZ       0.041367
     25 H5         -36.6990    -1.9270    -0.2600 h1         1 VGZ       0.041367
     26 H6         -36.1520    -1.8260    -1.9560 h1         1 VGZ       0.041367
     27 H7         -32.1640     2.1630     0.5090 ha         1 VGZ       0.136000
     28 H8         -28.3290    -0.7820     1.5720 ha         1 VGZ       0.126000
     29 H9         -27.0390    -2.8300     1.8640 ha         1 VGZ       0.131500
     30 H10        -25.3430    -7.4420     2.1320 hc         1 VGZ       0.065700
     31 H11        -27.1070    -7.7280     2.4440 hc         1 VGZ       0.065700
     32 H12        -26.5840    -7.6310     0.8220 hc         1 VGZ       0.065700
     33 H13        -32.5260    -1.5660     0.1680 hn         1 VGZ       0.163000
     34 H14        -28.5270    -6.2170     1.1790 hn         1 VGZ       0.149000
     35 H15        -30.4540    -5.1770     0.6190 ha         1 VGZ       0.131500
     36 H16        -31.7620    -3.1340     0.3200 ha         1 VGZ       0.126000
     37 N2         -27.9620    -5.4100     1.4090 ns         1 VGZ      -0.153000
@<TRIPOS>BOND
     1     1     2 ar  
     2     1     6 ar  
     3     1    21 1   
     4     2     3 ar  
     5     2    22 1   
     6     3     4 ar  
     7     3    23 1   
     8     4    13 1   
     9     4    14 ar  
    10     5    13 1   
    11     5    24 1   
    12     5    25 1   
    13     5    26 1   
    14     6    14 ar  
    15     6    27 1   
    16     7    15 1   
    17     7    16 2   
    18     7    17 1   
    19     8     9 ar  
    20     8    17 ar  
    21     8    28 1   
    22     9    10 ar  
    23     9    29 1   
    24    10    19 ar  
    25    10    37 1   
    26    11    12 1   
    27    11    18 2   
    28    11    37 1   
    29    12    30 1   
    30    12    31 1   
    31    12    32 1   
    32    14    15 1   
    33    15    33 1   
    34    17    20 ar  
    35    19    20 ar  
    36    19    35 1   
    37    20    36 1   
    38    34    37 1   
@<TRIPOS>SUBSTRUCTURE
     1 VGZ         1 TEMP              0 ****  ****    0 ROOT
