@<TRIPOS>MOLECULE
VH0
   27    28     1     0     0
SMALL
No Charge or Current Charge


@<TRIPOS>ATOM
      1 N11          1.7320     0.7650    -1.5100 n7         1 VH0      -0.847400
      2 C23          1.0700     2.0260    -1.1170 c5         1 VH0       0.141800
      3 C10          2.3330     0.2670    -0.2230 c5         1 VH0       0.014500
      4 C8           2.5520    -1.3010    -0.1030 c          1 VH0       0.716000
      5 O9           1.7520    -2.0580    -0.6390 o          1 VH0      -0.726000
      6 C25          1.3640     0.7620     0.9080 c5         1 VH0      -0.102400
      7 C24          0.3020     1.6510     0.1760 c5         1 VH0       0.038300
      8 N26         -1.0150     1.0350    -0.0630 na         1 VH0       0.138800
      9 N27         -2.1310     1.8150    -0.1640 nc         1 VH0      -0.249800
     10 N28         -3.1360     1.0100    -0.3810 nd         1 VH0      -0.361000
     11 C30         -1.3230    -0.2960    -0.2230 cc         1 VH0      -0.179000
     12 C29         -2.6750    -0.2910    -0.4200 cd         1 VH0       0.159300
     13 C31         -3.5870    -1.4820    -0.6630 c3         1 VH0       0.140500
     14 N32         -3.8460    -2.2730     0.5680 n8         1 VH0      -0.986200
     15 H231         1.8190     2.8040    -0.9120 h1         1 VH0       0.046700
     16 H232         0.4020     2.4040    -1.9050 h1         1 VH0       0.046700
     17 H10          3.3160     0.7380    -0.0810 h1         1 VH0       0.057700
     18 H24          0.1280     2.5610     0.7650 h1         1 VH0       0.075700
     19 H251         0.9020    -0.0600     1.4670 hc         1 VH0       0.054200
     20 H252         1.9210     1.3520     1.6450 hc         1 VH0       0.054200
     21 H30         -0.6030    -1.1000    -0.1850 h4         1 VH0       0.220000
     22 H311        -4.5480    -1.1300    -1.0640 h1         1 VH0       0.034700
     23 H312        -3.1250    -2.1380    -1.4130 h1         1 VH0       0.034700
     24 H32         -4.4070    -3.0990     0.3250 hn         1 VH0       0.385000
     25 H2           1.0100     0.0900    -1.8010 hn         1 VH0       0.436000
     26 H3          -2.9600    -2.6690     0.9050 hn         1 VH0       0.385000
     27 OXT          3.5600    -1.7180     0.4510 o          1 VH0      -0.726000
@<TRIPOS>BOND
     1     1     2 1   
     2     1     3 1   
     3     1    25 1   
     4     2     7 1   
     5     2    15 1   
     6     2    16 1   
     7     3     4 1   
     8     3     6 1   
     9     3    17 1   
    10     4     5 1   
    11     4    27 1   
    12     6     7 1   
    13     6    19 1   
    14     6    20 1   
    15     7     8 1   
    16     7    18 1   
    17     8     9 1   
    18     8    11 1   
    19     9    10 2   
    20    10    12 1   
    21    11    12 2   
    22    11    21 1   
    23    12    13 1   
    24    13    14 1   
    25    13    22 1   
    26    13    23 1   
    27    14    24 1   
    28    14    26 1   
@<TRIPOS>SUBSTRUCTURE
     1 VH0         1 TEMP              0 ****  ****    0 ROOT
