@<TRIPOS>MOLECULE
VH0
   27    28     1     0     0
SMALL
bcc


@<TRIPOS>ATOM
      1 N11          1.7810     0.7930    -1.4770 n7         1 VH0      -0.792200
      2 C23          0.9880     1.9590    -1.1480 c5         1 VH0       0.141800
      3 C10          2.3080     0.2750    -0.2230 c5         1 VH0       0.014500
      4 C8           2.4010    -1.2620    -0.1880 c          1 VH0       0.926600
      5 O9           1.6960    -1.8990    -1.0010 o          1 VH0      -0.831300
      6 C25          1.3850     0.8160     0.9170 c5         1 VH0      -0.102400
      7 C24          0.3280     1.6670     0.2090 c5         1 VH0       0.009000
      8 N26         -0.9420     0.9720     0.0500 na         1 VH0       0.117400
      9 N27         -2.0730     1.6360     0.2180 nc         1 VH0      -0.249800
     10 N28         -3.0510     0.8340    -0.0280 nd         1 VH0      -0.361000
     11 C30         -1.1880    -0.2960    -0.3250 cc         1 VH0      -0.211600
     12 C29         -2.5580    -0.3760    -0.3720 cd         1 VH0       0.224600
     13 C31         -3.4180    -1.5510    -0.6890 c3         1 VH0       0.140500
     14 N32         -4.0230    -2.0960     0.5210 n8         1 VH0      -0.875800
     15 H231         1.6380     2.8300    -1.0200 h1         1 VH0       0.046700
     16 H232         0.2690     2.1960    -1.9330 h1         1 VH0       0.046700
     17 H10          3.3120     0.6770    -0.0580 h1         1 VH0       0.057700
     18 H24          0.0890     2.5780     0.7550 h1         1 VH0       0.075700
     19 H251         0.9330     0.0270     1.5200 hc         1 VH0       0.054200
     20 H252         1.9510     1.4460     1.6010 hc         1 VH0       0.054200
     21 H30         -0.4150    -1.0230    -0.5220 h4         1 VH0       0.238000
     22 H311        -4.2240    -1.2340    -1.3550 h1         1 VH0       0.034700
     23 H312        -2.8180    -2.2760    -1.2520 h1         1 VH0       0.034700
     24 H32         -4.6230    -2.8700     0.2650 hn         1 VH0       0.329800
     25 H2           1.2090     0.0740    -1.9060 hn         1 VH0       0.380800
     26 H3          -3.2970    -2.4950     1.1030 hn         1 VH0       0.329800
     27 OXT          3.1490    -1.7380     0.6830 o          1 VH0      -0.831300
@<TRIPOS>BOND
     1     1     2 1   
     2     1     3 1   
     3     1    25 1   
     4     2     7 1   
     5     2    15 1   
     6     2    16 1   
     7     3     4 1   
     8     3     6 1   
     9     3    17 1   
    10     4     5 1   
    11     4    27 1   
    12     6     7 1   
    13     6    19 1   
    14     6    20 1   
    15     7     8 1   
    16     7    18 1   
    17     8     9 1   
    18     8    11 1   
    19     9    10 2   
    20    10    12 1   
    21    11    12 2   
    22    11    21 1   
    23    12    13 1   
    24    13    14 1   
    25    13    22 1   
    26    13    23 1   
    27    14    24 1   
    28    14    26 1   
@<TRIPOS>SUBSTRUCTURE
     1 VH0         1 TEMP              0 ****  ****    0 ROOT
