@<TRIPOS>MOLECULE
VH1
   40    43     1     0     0
SMALL
No Charge or Current Charge


@<TRIPOS>ATOM
      1 CAJ         -4.6180    -0.3490     0.0610 ca         1 VH1      -0.048000
      2 CAH         -5.4890     0.2140    -0.8880 ca         1 VH1      -0.187500
      3 CAQ         -5.4720     1.5940    -1.1310 ca         1 VH1       0.287000
      4 NAA         -6.3210     2.1370    -2.0540 nv         1 VH1      -1.075000
      5 CAI         -4.5830     2.4150    -0.4250 ca         1 VH1      -0.187500
      6 CAK         -3.7090     1.8590     0.5260 ca         1 VH1      -0.048000
      7 CAR         -3.7200     0.4720     0.7730 ca         1 VH1      -0.147300
      8 CAP         -2.7710    -0.1350     1.8010 c3         1 VH1       0.148300
      9 NAZ         -1.4760    -0.5750     1.2160 n          1 VH1      -0.374400
     10 CAU         -0.4280     0.3540     1.1530 c          1 VH1       0.599600
     11 OAC         -0.5500     1.4940     1.5830 o          1 VH1      -0.536000
     12 CAX          0.8660    -0.0970     0.5420 ca         1 VH1      -0.216600
     13 CAY          1.0130    -1.4080     0.0570 ca         1 VH1       0.041000
     14 CAO          1.9490     0.8040     0.4540 ca         1 VH1       0.087000
     15 CAS          3.1700     0.4050    -0.1190 ca         1 VH1      -0.240500
     16 SBA          4.5680     1.5990    -0.2080 s6         1 VH1       1.259100
     17 OAF          5.3650     1.0680    -1.3240 o          1 VH1      -0.685533
     18 OAE          3.8680     2.8690    -0.4520 o          1 VH1      -0.685533
     19 OAD          5.1560     1.4440     1.1300 o          1 VH1      -0.685533
     20 CAN          3.3150    -0.9110    -0.5960 ca         1 VH1       0.026000
     21 CAV          2.2410    -1.8150    -0.5120 ca         1 VH1      -0.085000
     22 CAL          2.3930    -3.1280    -0.9950 ca         1 VH1      -0.042000
     23 CAG          1.3230    -4.0310    -0.9130 ca         1 VH1      -0.163000
     24 CAM          0.1030    -3.6280    -0.3480 ca         1 VH1      -0.028000
     25 CAW         -0.0610    -2.3130     0.1410 ca         1 VH1      -0.173600
     26 CAT         -1.3710    -1.8920     0.7460 c          1 VH1       0.600600
     27 OAB         -2.3060    -2.6810     0.8250 o          1 VH1      -0.561000
     28 HAJ         -4.6420    -1.4210     0.2420 ha         1 VH1       0.126000
     29 HAH         -6.1760    -0.4290    -1.4320 ha         1 VH1       0.106500
     30 HAA1        -7.0580     1.5660    -2.4620 hn         1 VH1       0.441000
     31 HAA2        -6.4080     3.1490    -2.1310 hn         1 VH1       0.441000
     32 HAI         -4.5650     3.4860    -0.6080 ha         1 VH1       0.106500
     33 HAK         -3.0240     2.5070     1.0690 ha         1 VH1       0.126000
     34 HAP1        -2.5890     0.5950     2.6010 h1         1 VH1       0.066700
     35 HAP2        -3.2670    -0.9830     2.2930 h1         1 VH1       0.066700
     36 HAO          1.8450     1.8200     0.8330 ha         1 VH1       0.156000
     37 HAN          4.2590    -1.2350    -1.0300 ha         1 VH1       0.140000
     38 HAL          3.3350    -3.4490    -1.4350 ha         1 VH1       0.115000
     39 HAG          1.4390    -5.0450    -1.2870 ha         1 VH1       0.108000
     40 HAM         -0.7150    -4.3440    -0.2930 ha         1 VH1       0.124000
@<TRIPOS>BOND
     1     1     2 ar  
     2     1     7 ar  
     3     1    28 1   
     4     2     3 ar  
     5     2    29 1   
     6     3     4 1   
     7     3     5 ar  
     8     4    30 1   
     9     4    31 1   
    10     5     6 ar  
    11     5    32 1   
    12     6     7 ar  
    13     6    33 1   
    14     7     8 1   
    15     8     9 1   
    16     8    34 1   
    17     8    35 1   
    18     9    10 1   
    19     9    26 1   
    20    10    11 2   
    21    10    12 1   
    22    12    13 ar  
    23    12    14 ar  
    24    13    21 ar  
    25    13    25 ar  
    26    14    15 ar  
    27    14    36 1   
    28    15    16 1   
    29    15    20 ar  
    30    16    17 1   
    31    16    18 1   
    32    16    19 1   
    33    20    21 ar  
    34    20    37 1   
    35    21    22 ar  
    36    22    23 ar  
    37    22    38 1   
    38    23    24 ar  
    39    23    39 1   
    40    24    25 ar  
    41    24    40 1   
    42    25    26 1   
    43    26    27 2   
@<TRIPOS>SUBSTRUCTURE
     1 VH1         1 TEMP              0 ****  ****    0 ROOT
