@<TRIPOS>MOLECULE
VH1
   40    43     1     0     0
SMALL
bcc


@<TRIPOS>ATOM
      1 CAJ         -4.5280    -0.3340     0.0120 ca         1 VH1      -0.066000
      2 CAH         -5.3790     0.2210    -0.9280 ca         1 VH1      -0.205500
      3 CAQ         -5.3980     1.6030    -1.1490 ca         1 VH1       0.148600
      4 NAA         -6.2010     2.1570    -2.1220 nv         1 VH1      -0.826200
      5 CAI         -4.5400     2.4000    -0.3820 ca         1 VH1      -0.205500
      6 CAK         -3.6930     1.8310     0.5540 ca         1 VH1      -0.066000
      7 CAR         -3.6610     0.4540     0.7680 ca         1 VH1      -0.147300
      8 CAP         -2.7320    -0.1560     1.7830 c3         1 VH1       0.148300
      9 NAZ         -1.4510    -0.5940     1.2010 n          1 VH1      -0.508400
     10 CAU         -0.4330     0.3450     1.1190 c          1 VH1       0.742100
     11 OAC         -0.5960     1.4740     1.5310 o          1 VH1      -0.611500
     12 CAX          0.8420    -0.0900     0.5210 ca         1 VH1      -0.216600
     13 CAY          0.9870    -1.4100     0.0530 ca         1 VH1       0.041000
     14 CAO          1.8840     0.7970     0.4200 ca         1 VH1       0.069000
     15 CAS          3.1020     0.3960    -0.1560 ca         1 VH1      -0.240500
     16 SBA          4.4550     1.5730    -0.2010 s6         1 VH1       1.259100
     17 OAF          5.4210     1.0330    -1.1700 o          1 VH1      -0.685533
     18 OAE          3.8370     2.8400    -0.6230 o          1 VH1      -0.685533
     19 OAD          4.9550     1.6000     1.1820 o          1 VH1      -0.685533
     20 CAN          3.2640    -0.8810    -0.6210 ca         1 VH1       0.008000
     21 CAV          2.2100    -1.8150    -0.5250 ca         1 VH1      -0.085000
     22 CAL          2.3370    -3.1430    -0.9870 ca         1 VH1      -0.060000
     23 CAG          1.2910    -4.0230    -0.8750 ca         1 VH1      -0.181000
     24 CAM          0.0770    -3.6120    -0.3020 ca         1 VH1      -0.046000
     25 CAW         -0.0780    -2.3240     0.1560 ca         1 VH1      -0.173600
     26 CAT         -1.3580    -1.9020     0.7500 c          1 VH1       0.743100
     27 OAB         -2.3000    -2.6620     0.8470 o          1 VH1      -0.636500
     28 HAJ         -4.5490    -1.4060     0.1630 ha         1 VH1       0.144000
     29 HAH         -6.0440    -0.4220    -1.4940 ha         1 VH1       0.124500
     30 HAA1        -7.0030     1.6110    -2.3920 hn         1 VH1       0.385800
     31 HAA2        -6.4380     3.1280    -1.9940 hn         1 VH1       0.385800
     32 HAI         -4.5400     3.4750    -0.5210 ha         1 VH1       0.124500
     33 HAK         -3.0470     2.4790     1.1310 ha         1 VH1       0.144000
     34 HAP1        -2.5070     0.5540     2.5730 h1         1 VH1       0.066700
     35 HAP2        -3.1870    -1.0230     2.2540 h1         1 VH1       0.066700
     36 HAO          1.7620     1.8130     0.7730 ha         1 VH1       0.174000
     37 HAN          4.2000    -1.1920    -1.0690 ha         1 VH1       0.158000
     38 HAL          3.2730    -3.4610    -1.4290 ha         1 VH1       0.133000
     39 HAG          1.3950    -5.0390    -1.2280 ha         1 VH1       0.126000
     40 HAM         -0.7400    -4.3170    -0.2240 ha         1 VH1       0.142000
@<TRIPOS>BOND
     1     1     2 ar  
     2     1     7 ar  
     3     1    28 1   
     4     2     3 ar  
     5     2    29 1   
     6     3     4 1   
     7     3     5 ar  
     8     4    30 1   
     9     4    31 1   
    10     5     6 ar  
    11     5    32 1   
    12     6     7 ar  
    13     6    33 1   
    14     7     8 1   
    15     8     9 1   
    16     8    34 1   
    17     8    35 1   
    18     9    10 1   
    19     9    26 1   
    20    10    11 2   
    21    10    12 1   
    22    12    13 ar  
    23    12    14 ar  
    24    13    21 ar  
    25    13    25 ar  
    26    14    15 ar  
    27    14    36 1   
    28    15    16 1   
    29    15    20 ar  
    30    16    17 1   
    31    16    18 1   
    32    16    19 1   
    33    20    21 ar  
    34    20    37 1   
    35    21    22 ar  
    36    22    23 ar  
    37    22    38 1   
    38    23    24 ar  
    39    23    39 1   
    40    24    25 ar  
    41    24    40 1   
    42    25    26 1   
    43    26    27 2   
@<TRIPOS>SUBSTRUCTURE
     1 VH1         1 TEMP              0 ****  ****    0 ROOT
