@<TRIPOS>MOLECULE
VH2
   43    46     1     0     0
SMALL
No Charge or Current Charge


@<TRIPOS>ATOM
      1 CBA          4.3350     0.0860     0.1060 ca         1 VH2       0.050000
      2 CAP          4.1160    -0.2260     1.4720 ca         1 VH2      -0.127000
      3 CAG          4.3200     0.7340     2.4770 ca         1 VH2      -0.077000
      4 CAF          4.7490     2.0250     2.1440 ca         1 VH2      -0.114000
      5 CAN          4.9720     2.3570     0.8010 ca         1 VH2      -0.084000
      6 CAZ          4.7670     1.4010    -0.2130 ca         1 VH2      -0.062000
      7 CAO          4.9920     1.7770    -1.5480 ca         1 VH2      -0.033000
      8 CAH          4.7840     0.8570    -2.5810 ca         1 VH2      -0.143000
      9 CAK          4.3530    -0.4440    -2.2890 ca         1 VH2       0.027000
     10 CAW          4.1280    -0.8500    -0.9530 ca         1 VH2      -0.277500
     11 SBB          3.5450    -2.5500    -0.7080 sy         1 VH2       1.187600
     12 OAB          3.4120    -3.2430    -1.9930 o          1 VH2      -0.524000
     13 OAC          4.2390    -3.1660     0.4230 o          1 VH2      -0.524000
     14 NAR          1.9900    -2.4470    -0.1400 nu         1 VH2      -0.873000
     15 CAV          1.2820    -1.3110    -0.2550 cc         1 VH2       0.727300
     16 SAS          0.6460    -0.4250     1.1170 ss         1 VH2      -0.030400
     17 NAQ          0.9710    -0.8730    -1.4530 nd         1 VH2      -0.772000
     18 CAX          0.2450     0.2650    -1.2940 cd         1 VH2       0.557300
     19 OAA         -0.1110     0.8170    -2.4380 oh         1 VH2      -0.630300
     20 CAY         -0.0270     0.7010    -0.0240 cc         1 VH2      -0.282300
     21 CAE         -0.8110     1.9090     0.4120 c3         1 VH2       0.060200
     22 CAU         -2.2960     1.6040     0.5510 ca         1 VH2      -0.071300
     23 CAL         -2.8190     1.1690     1.7850 ca         1 VH2      -0.103000
     24 CAI         -4.1890     0.8780     1.9110 ca         1 VH2      -0.084000
     25 CAT         -5.0400     1.0190     0.8030 ca         1 VH2      -0.017900
     26 Br          -6.9030     0.6230     0.9740 br         1 VH2      -0.102100
     27 CAJ         -4.5260     1.4490    -0.4320 ca         1 VH2      -0.084000
     28 CAM         -3.1560     1.7390    -0.5570 ca         1 VH2      -0.103000
     29 HAP          3.7810    -1.2040     1.7940 ha         1 VH2       0.121000
     30 HAG          4.1450     0.4750     3.5190 ha         1 VH2       0.118000
     31 HAF          4.9070     2.7670     2.9240 ha         1 VH2       0.120000
     32 HAN          5.3030     3.3630     0.5490 ha         1 VH2       0.116000
     33 HAO          5.3220     2.7860    -1.7870 ha         1 VH2       0.117000
     34 HAH          4.9540     1.1530    -3.6130 ha         1 VH2       0.123000
     35 HAK          4.1930    -1.1310    -3.1170 ha         1 VH2       0.147000
     36 HAR          2.0770    -2.7580     0.8120 hn         1 VH2       0.529000
     37 HAA          0.2850     0.1870    -3.0730 ho         1 VH2       0.489000
     38 HAE1        -0.4130     2.2840     1.3630 hc         1 VH2       0.065700
     39 HAE2        -0.6620     2.7240    -0.3080 hc         1 VH2       0.065700
     40 HAL         -2.1640     1.0540     2.6460 ha         1 VH2       0.119500
     41 HAM         -2.7620     2.0660    -1.5170 ha         1 VH2       0.119500
     42 HAI         -4.5880     0.5430     2.8660 ha         1 VH2       0.129500
     43 HAJ         -5.1850     1.5550    -1.2900 ha         1 VH2       0.129500
@<TRIPOS>BOND
     1     1     2 ar  
     2     1     6 ar  
     3     1    10 ar  
     4     2     3 ar  
     5     2    29 1   
     6     3     4 ar  
     7     3    30 1   
     8     4     5 ar  
     9     4    31 1   
    10     5     6 ar  
    11     5    32 1   
    12     6     7 ar  
    13     7     8 ar  
    14     7    33 1   
    15     8     9 ar  
    16     8    34 1   
    17     9    10 ar  
    18     9    35 1   
    19    10    11 1   
    20    11    12 2   
    21    11    13 2   
    22    11    14 1   
    23    14    15 1   
    24    14    36 1   
    25    15    16 1   
    26    15    17 2   
    27    16    20 1   
    28    17    18 1   
    29    18    19 1   
    30    18    20 2   
    31    19    37 1   
    32    20    21 1   
    33    21    22 1   
    34    21    38 1   
    35    21    39 1   
    36    22    23 ar  
    37    22    28 ar  
    38    23    24 ar  
    39    23    40 1   
    40    24    25 ar  
    41    24    42 1   
    42    25    26 1   
    43    25    27 ar  
    44    27    28 ar  
    45    27    43 1   
    46    28    41 1   
@<TRIPOS>SUBSTRUCTURE
     1 VH2         1 TEMP              0 ****  ****    0 ROOT
