@<TRIPOS>MOLECULE
VH2
   43    46     1     0     0
SMALL
bcc


@<TRIPOS>ATOM
      1 CBA          4.7700    -0.0470     0.1490 ca         1 VH2       0.050000
      2 CAP          4.7290    -0.4560     1.5040 ca         1 VH2      -0.145000
      3 CAG          5.3510     0.2790     2.4770 ca         1 VH2      -0.095000
      4 CAF          6.0550     1.4560     2.1620 ca         1 VH2      -0.132000
      5 CAN          6.1230     1.8720     0.8630 ca         1 VH2      -0.102000
      6 CAZ          5.4890     1.1400    -0.1670 ca         1 VH2      -0.062000
      7 CAO          5.5660     1.5860    -1.5060 ca         1 VH2      -0.051000
      8 CAH          4.9510     0.9030    -2.5150 ca         1 VH2      -0.161000
      9 CAK          4.2160    -0.2580    -2.2230 ca         1 VH2       0.009000
     10 CAW          4.1350    -0.7190    -0.9360 ca         1 VH2      -0.277500
     11 SBB          3.1780    -2.1850    -0.6840 sy         1 VH2       1.329200
     12 OAB          2.6510    -2.6230    -1.9580 o          1 VH2      -0.594800
     13 OAC          3.8970    -3.1360     0.1440 o          1 VH2      -0.594800
     14 NAR          1.9180    -1.6730     0.2910 nu         1 VH2      -0.817800
     15 CAV          1.0830    -0.6360    -0.0370 cc         1 VH2       0.727300
     16 SAS          0.0370     0.0660     1.1420 ss         1 VH2      -0.175300
     17 NAQ          1.0450    -0.0920    -1.2060 nd         1 VH2      -0.772000
     18 CAX          0.1530     0.9400    -1.2180 cd         1 VH2       0.622600
     19 OAA         -0.0370     1.6250    -2.3510 oh         1 VH2      -0.591300
     20 CAY         -0.5060     1.2020    -0.0610 cc         1 VH2      -0.202700
     21 CAE         -1.5810     2.1950     0.2230 c3         1 VH2       0.060200
     22 CAU         -2.9370     1.5560     0.4030 ca         1 VH2      -0.071300
     23 CAL         -3.6520     1.7100     1.5840 ca         1 VH2      -0.121000
     24 CAI         -4.9000     1.1200     1.7530 ca         1 VH2      -0.102000
     25 CAT         -5.4320     0.3690     0.7190 ca         1 VH2      -0.017900
     26 BR          -7.1280    -0.4390     0.9310 br         1 VH2      -0.102100
     27 CAJ         -4.7390     0.1970    -0.4730 ca         1 VH2      -0.102000
     28 CAM         -3.4960     0.7910    -0.6180 ca         1 VH2      -0.121000
     29 HAP          4.2240    -1.3630     1.7990 ha         1 VH2       0.139000
     30 HAG          5.3030    -0.0560     3.5050 ha         1 VH2       0.136000
     31 HAF          6.5400     2.0210     2.9460 ha         1 VH2       0.138000
     32 HAN          6.6640     2.7720     0.6000 ha         1 VH2       0.134000
     33 HAO          6.1230     2.4900    -1.7200 ha         1 VH2       0.135000
     34 HAH          5.0110     1.2500    -3.5370 ha         1 VH2       0.141000
     35 HAK          3.7080    -0.7730    -3.0260 ha         1 VH2       0.165000
     36 HAR          1.8600    -2.1050     1.2040 hn         1 VH2       0.473800
     37 HAA          0.5230     1.2560    -3.0440 ho         1 VH2       0.450000
     38 HAE1        -1.3370     2.7880     1.1070 hc         1 VH2       0.065700
     39 HAE2        -1.6200     2.9020    -0.6100 hc         1 VH2       0.065700
     40 HAL         -3.2360     2.2970     2.3930 ha         1 VH2       0.137500
     41 HAM         -2.9540     0.6530    -1.5470 ha         1 VH2       0.137500
     42 HAI         -5.4350     1.2530     2.6830 ha         1 VH2       0.147500
     43 HAJ         -5.1540    -0.3890    -1.2810 ha         1 VH2       0.147500
@<TRIPOS>BOND
     1     1     2 ar  
     2     1     6 ar  
     3     1    10 ar  
     4     2     3 ar  
     5     2    29 1   
     6     3     4 ar  
     7     3    30 1   
     8     4     5 ar  
     9     4    31 1   
    10     5     6 ar  
    11     5    32 1   
    12     6     7 ar  
    13     7     8 ar  
    14     7    33 1   
    15     8     9 ar  
    16     8    34 1   
    17     9    10 ar  
    18     9    35 1   
    19    10    11 1   
    20    11    12 2   
    21    11    13 2   
    22    11    14 1   
    23    14    15 1   
    24    14    36 1   
    25    15    16 1   
    26    15    17 2   
    27    16    20 1   
    28    17    18 1   
    29    18    19 1   
    30    18    20 2   
    31    19    37 1   
    32    20    21 1   
    33    21    22 1   
    34    21    38 1   
    35    21    39 1   
    36    22    23 ar  
    37    22    28 ar  
    38    23    24 ar  
    39    23    40 1   
    40    24    25 ar  
    41    24    42 1   
    42    25    26 1   
    43    25    27 ar  
    44    27    28 ar  
    45    27    43 1   
    46    28    41 1   
@<TRIPOS>SUBSTRUCTURE
     1 VH2         1 TEMP              0 ****  ****    0 ROOT
