@<TRIPOS>MOLECULE
VH3
   76    79     1     0     0
SMALL
No Charge or Current Charge


@<TRIPOS>ATOM
      1 C13         52.2290    27.7680   -37.6780 ca         1 VH3      -0.006000
      2 C15         51.2900    25.9370   -36.1010 cc         1 VH3       0.304300
      3 C20         52.2460    29.1670   -37.9100 ca         1 VH3       0.141000
      4 C22         53.2020    29.7470   -38.7550 ca         1 VH3      -0.111000
      5 C26         53.7880    31.1220   -45.4460 c          1 VH3       0.605100
      6 C28         52.7330    29.3060   -47.0480 c3         1 VH3      -0.044000
      7 C02         51.3050    32.8970   -43.3210 c5         1 VH3       0.153300
      8 C03         51.9570    31.9200   -42.3130 c5         1 VH3      -0.130400
      9 C04         53.3160    31.5890   -43.0010 c5         1 VH3       0.033700
     10 C07         55.1970    29.6120   -40.3330 c3         1 VH3       0.171000
     11 C08         54.1650    28.9540   -39.4100 ca         1 VH3      -0.091300
     12 C09         54.1650    27.5590   -39.1930 ca         1 VH3       0.140100
     13 C11         55.2170    25.3650   -39.6660 c3         1 VH3       0.147900
     14 C12         53.1990    26.9800   -38.3380 ca         1 VH3      -0.160000
     15 C14         51.2140    27.1380   -36.7900 cd         1 VH3      -0.193000
     16 C18         49.1280    26.3310   -35.8000 cd         1 VH3       0.408300
     17 C23         56.3340    30.2660   -39.5290 c3         1 VH3      -0.102100
     18 C27         53.2400    30.7920   -46.8780 c3         1 VH3       0.047700
     19 C30         53.8720    28.2930   -46.7430 c3         1 VH3      -0.090433
     20 C31         52.2410    29.0680   -48.5050 c3         1 VH3      -0.090433
     21 C34         55.3620    32.0300   -49.8680 cx         1 VH3       0.035000
     22 C36         56.4370    32.9470   -49.3230 cx         1 VH3      -0.119400
     23 C37         55.6130    33.3780   -50.5120 cx         1 VH3      -0.119400
     24 C40         51.6100    32.1950   -44.6810 c5         1 VH3       0.108000
     25 F21         51.3820    29.9940   -37.2790 f          1 VH3      -0.178000
     26 F35         55.7620    30.9130   -50.5450 f          1 VH3      -0.232000
     27 N06         54.5690    30.5960   -41.2130 ns         1 VH3      -0.506900
     28 N17         50.1240    25.4990   -35.5270 nc         1 VH3      -0.639000
     29 N25         52.8830    31.4720   -44.4190 n          1 VH3      -0.389800
     30 N32         54.2920    31.1290   -47.8690 ns         1 VH3      -0.478900
     31 O01         51.8950    34.1990   -43.2420 oh         1 VH3      -0.648000
     32 O10         55.1220    26.7910   -39.8320 os         1 VH3      -0.340100
     33 O24         53.7860    29.1360   -42.7960 o          1 VH3      -0.586100
     34 O38         53.0000    32.2690   -49.3680 o          1 VH3      -0.608100
     35 O39         54.9890    31.0470   -45.1980 o          1 VH3      -0.607100
     36 S19         49.5530    27.7280   -36.7730 ss         1 VH3       0.004600
     37 H1          53.1940    30.8250   -38.8930 ha         1 VH3       0.128000
     38 H2          50.2200    32.9730   -43.1590 h1         1 VH3       0.054700
     39 H3          52.0820    32.3540   -41.3140 hc         1 VH3       0.065700
     40 H4          51.3400    31.0200   -42.1970 hc         1 VH3       0.065700
     41 H5          54.0450    32.4010   -42.8850 h1         1 VH3       0.073700
     42 H6          55.6510    28.8450   -40.9760 h1         1 VH3       0.095700
     43 H7          56.0530    24.9690   -40.2550 h1         1 VH3       0.043367
     44 H8          55.3890    25.1050   -38.6140 h1         1 VH3       0.043367
     45 H9          54.2980    24.8700   -40.0070 h1         1 VH3       0.043367
     46 H10         53.1730    25.9060   -38.2190 ha         1 VH3       0.129000
     47 H11         52.4520    24.5940   -34.8750 hc         1 VH3       0.051033
     48 H12         52.6200    24.3190   -36.6140 hc         1 VH3       0.051033
     49 H13         53.4220    25.7080   -35.8390 hc         1 VH3       0.051033
     50 H14         48.1060    26.2050   -35.4640 h5         1 VH3       0.053100
     51 H15         56.8340    29.5190   -38.9010 hc         1 VH3       0.046367
     52 H16         57.0820    30.7010   -40.2020 hc         1 VH3       0.046367
     53 H17         55.9480    31.0590   -38.8780 hc         1 VH3       0.046367
     54 H18         52.3890    31.4590   -47.0560 h1         1 VH3       0.086700
     55 H19         51.8270    29.0910   -45.0460 hc         1 VH3       0.041144
     56 H20         50.7030    29.6860   -46.2930 hc         1 VH3       0.041144
     57 H21         51.1720    27.9820   -46.2510 hc         1 VH3       0.041144
     58 H22         54.2140    28.3760   -45.7050 hc         1 VH3       0.041144
     59 H23         53.5270    27.2620   -46.8940 hc         1 VH3       0.041144
     60 H24         54.7350    28.4520   -47.4000 hc         1 VH3       0.041144
     61 H25         51.4660    29.7950   -48.7800 hc         1 VH3       0.041144
     62 H26         53.0610    29.1520   -49.2280 hc         1 VH3       0.041144
     63 H27         51.8120    28.0640   -48.6160 hc         1 VH3       0.041144
     64 H28         57.4750    32.6710   -49.4970 hc         1 VH3       0.092200
     65 H29         56.2540    33.4460   -48.3730 hc         1 VH3       0.092200
     66 H30         54.8760    34.1630   -50.3610 hc         1 VH3       0.092200
     67 H31         56.0950    33.3900   -51.4870 hc         1 VH3       0.092200
     68 H32         51.7040    32.9260   -45.4950 h1         1 VH3       0.069700
     69 H33         50.8060    31.4950   -44.9370 h1         1 VH3       0.069700
     70 H34         54.6090    31.5730   -40.9510 hn         1 VH3       0.314500
     71 H35         55.2430    30.8380   -47.6730 hn         1 VH3       0.344500
     72 H36         51.6190    34.5860   -42.3820 ho         1 VH3       0.444000
     73 C16         52.5130    25.0960   -35.8480 c3         1 VH3      -0.121400
     74 C05         53.8910    30.2800   -42.3710 c          1 VH3       0.604100
     75 C29         51.5400    29.0050   -46.1000 c3         1 VH3      -0.090433
     76 C33         54.0970    31.8350   -49.0360 c          1 VH3       0.622100
@<TRIPOS>BOND
     1     1     3 ar  
     2     1    14 ar  
     3     1    15 1   
     4     2    15 2   
     5     2    28 1   
     6     2    73 1   
     7     3     4 ar  
     8     3    25 1   
     9     4    11 ar  
    10     4    37 1   
    11     5    18 1   
    12     5    29 1   
    13     5    35 2   
    14     6    18 1   
    15     6    19 1   
    16     6    20 1   
    17     6    75 1   
    18     7     8 1   
    19     7    24 1   
    20     7    31 1   
    21     7    38 1   
    22     8     9 1   
    23     8    39 1   
    24     8    40 1   
    25     9    29 1   
    26     9    41 1   
    27     9    74 1   
    28    10    11 1   
    29    10    17 1   
    30    10    27 1   
    31    10    42 1   
    32    11    12 ar  
    33    12    14 ar  
    34    12    32 1   
    35    13    32 1   
    36    13    43 1   
    37    13    44 1   
    38    13    45 1   
    39    14    46 1   
    40    15    36 1   
    41    16    28 2   
    42    16    36 1   
    43    16    50 1   
    44    17    51 1   
    45    17    52 1   
    46    17    53 1   
    47    18    30 1   
    48    18    54 1   
    49    19    58 1   
    50    19    59 1   
    51    19    60 1   
    52    20    61 1   
    53    20    62 1   
    54    20    63 1   
    55    21    22 1   
    56    21    23 1   
    57    21    26 1   
    58    21    76 1   
    59    22    23 1   
    60    22    64 1   
    61    22    65 1   
    62    23    66 1   
    63    23    67 1   
    64    24    29 1   
    65    24    68 1   
    66    24    69 1   
    67    27    70 1   
    68    27    74 1   
    69    30    71 1   
    70    30    76 1   
    71    31    72 1   
    72    33    74 2   
    73    34    76 2   
    74    47    73 1   
    75    48    73 1   
    76    49    73 1   
    77    55    75 1   
    78    56    75 1   
    79    57    75 1   
@<TRIPOS>SUBSTRUCTURE
     1 VH3         1 TEMP              0 ****  ****    0 ROOT
