@<TRIPOS>MOLECULE
VH3
   76    79     1     0     0
SMALL
abcg2


@<TRIPOS>ATOM
      1 C13         52.1090    27.7270   -37.8770 ca         1 VH3      -0.006000
      2 C15         51.2710    26.5350   -35.7800 cc         1 VH3       0.304300
      3 C20         52.1700    29.0350   -38.3210 ca         1 VH3       0.141000
      4 C22         53.1190    29.4610   -39.2290 ca         1 VH3      -0.111000
      5 C26         53.8160    30.8760   -45.3570 c          1 VH3       0.605100
      6 C28         52.9480    29.2360   -47.1390 c3         1 VH3      -0.044000
      7 C02         51.3850    32.7100   -43.4050 c5         1 VH3       0.153300
      8 C03         52.0990    31.8980   -42.3320 c5         1 VH3      -0.130400
      9 C04         53.3630    31.4080   -43.0480 c5         1 VH3       0.033700
     10 C07         55.1320    29.0310   -40.6990 c3         1 VH3       0.171000
     11 C08         54.0600    28.5740   -39.7270 ca         1 VH3      -0.091300
     12 C09         54.0290    27.2440   -39.2810 ca         1 VH3       0.140100
     13 C11         55.0000    25.0750   -39.3690 c3         1 VH3       0.147900
     14 C12         53.0570    26.8310   -38.3790 ca         1 VH3      -0.160000
     15 C14         51.0980    27.2750   -36.9200 cd         1 VH3      -0.193000
     16 C18         49.0770    26.6940   -35.7310 cd         1 VH3       0.408300
     17 C23         56.4150    29.3900   -39.9560 c3         1 VH3      -0.102100
     18 C27         53.3300    30.7050   -46.7960 c3         1 VH3       0.047700
     19 C30         54.1120    28.2610   -46.9560 c3         1 VH3      -0.090433
     20 C31         52.4820    29.1990   -48.5960 c3         1 VH3      -0.090433
     21 C34         55.3920    32.7510   -49.2050 cx         1 VH3       0.035000
     22 C36         55.8350    34.1720   -49.2640 cx         1 VH3      -0.119400
     23 C37         55.1640    33.5400   -50.4460 cx         1 VH3      -0.119400
     24 C40         51.6050    31.8560   -44.6410 c5         1 VH3       0.108000
     25 F21         51.2770    29.9260   -37.8530 f          1 VH3      -0.178000
     26 F35         56.3760    31.7930   -49.2540 f          1 VH3      -0.232000
     27 N06         54.7050    30.1680   -41.4850 ns         1 VH3      -0.506900
     28 N17         50.1130    26.2190   -35.1230 nc         1 VH3      -0.639000
     29 N25         52.9420    31.3070   -44.4330 n          1 VH3      -0.389800
     30 N32         54.3480    31.2160   -47.6830 ns         1 VH3      -0.478900
     31 O01         52.0090    33.9530   -43.6300 oh         1 VH3      -0.648000
     32 O10         54.9750    26.4260   -39.7820 os         1 VH3      -0.340100
     33 O24         53.3210    29.0080   -42.8350 o          1 VH3      -0.586100
     34 O38         53.2640    33.1240   -48.2640 o          1 VH3      -0.608100
     35 O39         54.9740    30.6120   -45.0600 o          1 VH3      -0.607100
     36 S19         49.4160    27.5750   -37.1580 ss         1 VH3       0.004600
     37 H1          53.1200    30.4960   -39.5470 ha         1 VH3       0.128000
     38 H2          50.3170    32.8250   -43.1890 h1         1 VH3       0.054700
     39 H3          52.3280    32.4690   -41.4310 hc         1 VH3       0.065700
     40 H4          51.4720    31.0530   -42.0390 hc         1 VH3       0.065700
     41 H5          54.1700    32.1410   -42.9460 h1         1 VH3       0.073700
     42 H6          55.3470    28.2150   -41.3900 h1         1 VH3       0.095700
     43 H7          55.8380    24.6120   -39.8830 h1         1 VH3       0.043367
     44 H8          55.1530    24.9820   -38.2900 h1         1 VH3       0.043367
     45 H9          54.0830    24.5470   -39.6440 h1         1 VH3       0.043367
     46 H10         53.0000    25.8000   -38.0590 ha         1 VH3       0.129000
     47 H11         52.5810    26.2230   -34.1300 hc         1 VH3       0.051033
     48 H12         52.7400    25.0210   -35.4020 hc         1 VH3       0.051033
     49 H13         53.4130    26.6310   -35.6330 hc         1 VH3       0.051033
     50 H14         48.0600    26.5670   -35.3830 h5         1 VH3       0.053100
     51 H15         56.7720    28.5380   -39.3810 hc         1 VH3       0.046367
     52 H16         57.1990    29.6760   -40.6580 hc         1 VH3       0.046367
     53 H17         56.2470    30.2160   -39.2640 hc         1 VH3       0.046367
     54 H18         52.4360    31.3020   -46.9720 h1         1 VH3       0.086700
     55 H19         52.0540    28.7910   -45.1890 hc         1 VH3       0.041144
     56 H20         50.9190    29.4530   -46.3720 hc         1 VH3       0.041144
     57 H21         51.4720    27.7890   -46.5130 hc         1 VH3       0.041144
     58 H22         54.4280    28.1840   -45.9160 hc         1 VH3       0.041144
     59 H23         53.8000    27.2670   -47.2790 hc         1 VH3       0.041144
     60 H24         54.9830    28.5310   -47.5560 hc         1 VH3       0.041144
     61 H25         51.6740    29.9120   -48.7710 hc         1 VH3       0.041144
     62 H26         53.2890    29.4280   -49.2930 hc         1 VH3       0.041144
     63 H27         52.1080    28.2040   -48.8410 hc         1 VH3       0.041144
     64 H28         56.9020    34.3460   -49.3250 hc         1 VH3       0.092200
     65 H29         55.2860    34.8950   -48.6750 hc         1 VH3       0.092200
     66 H30         54.1470    33.8240   -50.6830 hc         1 VH3       0.092200
     67 H31         55.7820    33.2900   -51.2990 hc         1 VH3       0.092200
     68 H32         51.5450    32.4490   -45.5530 h1         1 VH3       0.069700
     69 H33         50.8510    31.0670   -44.6950 h1         1 VH3       0.069700
     70 H34         55.0540    31.0800   -41.2330 hn         1 VH3       0.314500
     71 H35         55.2180    30.7120   -47.7430 hn         1 VH3       0.344500
     72 H36         51.9820    34.4600   -42.8120 ho         1 VH3       0.444000
     73 C16         52.5740    26.0830   -35.2110 c3         1 VH3      -0.121400
     74 C05         53.8050    30.0680   -42.4770 c          1 VH3       0.604100
     75 C29         51.7850    28.7990   -46.2460 c3         1 VH3      -0.090433
     76 C33         54.2310    32.3800   -48.3370 c          1 VH3       0.622100
@<TRIPOS>BOND
     1     1     3 ar  
     2     1    14 ar  
     3     1    15 1   
     4     2    15 2   
     5     2    28 1   
     6     2    73 1   
     7     3     4 ar  
     8     3    25 1   
     9     4    11 ar  
    10     4    37 1   
    11     5    18 1   
    12     5    29 1   
    13     5    35 2   
    14     6    18 1   
    15     6    19 1   
    16     6    20 1   
    17     6    75 1   
    18     7     8 1   
    19     7    24 1   
    20     7    31 1   
    21     7    38 1   
    22     8     9 1   
    23     8    39 1   
    24     8    40 1   
    25     9    29 1   
    26     9    41 1   
    27     9    74 1   
    28    10    11 1   
    29    10    17 1   
    30    10    27 1   
    31    10    42 1   
    32    11    12 ar  
    33    12    14 ar  
    34    12    32 1   
    35    13    32 1   
    36    13    43 1   
    37    13    44 1   
    38    13    45 1   
    39    14    46 1   
    40    15    36 1   
    41    16    28 2   
    42    16    36 1   
    43    16    50 1   
    44    17    51 1   
    45    17    52 1   
    46    17    53 1   
    47    18    30 1   
    48    18    54 1   
    49    19    58 1   
    50    19    59 1   
    51    19    60 1   
    52    20    61 1   
    53    20    62 1   
    54    20    63 1   
    55    21    22 1   
    56    21    23 1   
    57    21    26 1   
    58    21    76 1   
    59    22    23 1   
    60    22    64 1   
    61    22    65 1   
    62    23    66 1   
    63    23    67 1   
    64    24    29 1   
    65    24    68 1   
    66    24    69 1   
    67    27    70 1   
    68    27    74 1   
    69    30    71 1   
    70    30    76 1   
    71    31    72 1   
    72    33    74 2   
    73    34    76 2   
    74    47    73 1   
    75    48    73 1   
    76    49    73 1   
    77    55    75 1   
    78    56    75 1   
    79    57    75 1   
@<TRIPOS>SUBSTRUCTURE
     1 VH3         1 TEMP              0 ****  ****    0 ROOT
