@<TRIPOS>MOLECULE
VH4
   58    61     1     0     0
SMALL
bcc


@<TRIPOS>ATOM
      1 C17         48.9690     0.9060    99.0320 c6         1 VH4      -0.091400
      2 C20         48.9170     2.0150   100.0750 c6         1 VH4       0.116700
      3 C22         47.9260     1.6490   101.1740 c6         1 VH4      -0.091400
      4 C05         48.5840    -2.2140   101.3760 c3         1 VH4       0.165800
      5 C06         48.5580    -3.2970   100.2950 c3         1 VH4      -0.122600
      6 C12         48.3090    -0.8220   100.7680 c6         1 VH4      -0.040700
      7 C14         49.3040    -0.4380    99.6670 c6         1 VH4      -0.067400
      8 C25         48.2590     0.3020   101.8090 c6         1 VH4      -0.067400
      9 C33         48.0280     5.5220    97.8920 c6         1 VH4       0.083000
     10 C36         49.1210     5.2880    96.8440 c6         1 VH4      -0.044100
     11 C39         50.2150     6.2540    97.1470 cc         1 VH4      -0.080600
     12 C40         50.3120     6.9840    98.3060 cd         1 VH4      -0.291600
     13 C41         49.3390     6.8240    99.4330 c6         1 VH4       0.167300
     14 C44         51.4300     7.8150    98.1100 cd         1 VH4       0.335200
     15 C48         51.5640     6.2210    95.0530 ca         1 VH4       0.048800
     16 C49         52.0060     7.1440    94.1110 ca         1 VH4      -0.131000
     17 C51         52.3250     6.7110    92.8340 ca         1 VH4      -0.092000
     18 C53         52.1980     5.3760    92.4750 ca         1 VH4      -0.172000
     19 C55         51.7560     4.4880    93.4350 ca         1 VH4       0.147900
     20 C57         51.4470     4.8750    94.7240 ca         1 VH4      -0.190000
     21 F56         51.6350     3.1910    93.1190 f          1 VH4      -0.139900
     22 N28         48.5940     3.2740    99.4330 ns         1 VH4      -0.583900
     23 N32         48.5860     5.5940    99.2350 n          1 VH4      -0.455800
     24 N46         51.9810     7.6090    96.9330 nc         1 VH4      -0.508800
     25 N47         51.2420     6.6540    96.3530 na         1 VH4       0.173300
     26 O10         49.8720    -2.1550   101.9730 oh         1 VH4      -0.595800
     27 O31         49.8240     4.5450   100.8350 o          1 VH4      -0.627100
     28 H19         47.9980     0.8400    98.5260 hc         1 VH4       0.041950
     29 H18         49.7080     1.1530    98.2660 hc         1 VH4       0.041950
     30 H21         49.9120     2.1150   100.5160 h1         1 VH4       0.086700
     31 H23         47.9140     2.4300   101.9390 hc         1 VH4       0.041950
     32 H24         46.9190     1.6130   100.7430 hc         1 VH4       0.041950
     33 H03         47.6990    -3.5830   102.8060 hc         1 VH4       0.040700
     34 H04         47.5620    -1.8960   103.2880 hc         1 VH4       0.040700
     35 H02         46.5260    -2.5380   102.0110 hc         1 VH4       0.040700
     36 H09         48.6710    -4.2870   100.7440 hc         1 VH4       0.040700
     37 H07         47.6110    -3.2910    99.7520 hc         1 VH4       0.040700
     38 H08         49.3620    -3.1720    99.5700 hc         1 VH4       0.040700
     39 H13         47.3140    -0.8850   100.3060 hc         1 VH4       0.041700
     40 H15         49.3280    -1.1930    98.8800 hc         1 VH4       0.050950
     41 H16         50.3150    -0.3940   100.0850 hc         1 VH4       0.050950
     42 H27         49.2240     0.3710   102.3220 hc         1 VH4       0.050950
     43 H26         47.5150     0.0880   102.5770 hc         1 VH4       0.050950
     44 H35         47.5350     6.4760    97.6980 h1         1 VH4       0.057200
     45 H34         47.2430     4.7710    97.8150 h1         1 VH4       0.057200
     46 H37         48.7190     5.4380    95.8390 hc         1 VH4       0.065200
     47 H38         49.4690     4.2530    96.8970 hc         1 VH4       0.065200
     48 H43         49.8400     6.7990   100.3970 h1         1 VH4       0.076200
     49 H42         48.6370     7.6630    99.4620 h1         1 VH4       0.076200
     50 H45         51.8530     8.5430    98.7860 h4         1 VH4       0.043100
     51 H50         52.0940     8.1880    94.3740 ha         1 VH4       0.162000
     52 H52         52.6690     7.4280    92.1010 ha         1 VH4       0.142000
     53 H54         52.4380     5.0370    91.4770 ha         1 VH4       0.154000
     54 H58         51.1530     4.1330    95.4530 ha         1 VH4       0.160000
     55 H29         47.8520     3.2360    98.7540 hn         1 VH4       0.303500
     56 H11         50.0650    -3.0160   102.3580 ho         1 VH4       0.400000
     57 C01         47.5330    -2.5700   102.4320 c3         1 VH4      -0.122600
     58 C30         49.0490     4.4650    99.8890 c          1 VH4       0.775100
@<TRIPOS>BOND
     1     1     2 1   
     2     1     7 1   
     3     1    28 1   
     4     1    29 1   
     5     2     3 1   
     6     2    22 1   
     7     2    30 1   
     8     3     8 1   
     9     3    31 1   
    10     3    32 1   
    11     4     5 1   
    12     4     6 1   
    13     4    26 1   
    14     4    57 1   
    15     5    36 1   
    16     5    37 1   
    17     5    38 1   
    18     6     7 1   
    19     6     8 1   
    20     6    39 1   
    21     7    40 1   
    22     7    41 1   
    23     8    42 1   
    24     8    43 1   
    25     9    10 1   
    26     9    23 1   
    27     9    44 1   
    28     9    45 1   
    29    10    11 1   
    30    10    46 1   
    31    10    47 1   
    32    11    12 2   
    33    11    25 1   
    34    12    13 1   
    35    12    14 1   
    36    13    23 1   
    37    13    48 1   
    38    13    49 1   
    39    14    24 2   
    40    14    50 1   
    41    15    16 ar  
    42    15    20 ar  
    43    15    25 1   
    44    16    17 ar  
    45    16    51 1   
    46    17    18 ar  
    47    17    52 1   
    48    18    19 ar  
    49    18    53 1   
    50    19    20 ar  
    51    19    21 1   
    52    20    54 1   
    53    22    55 1   
    54    22    58 1   
    55    23    58 1   
    56    24    25 1   
    57    26    56 1   
    58    27    58 2   
    59    33    57 1   
    60    34    57 1   
    61    35    57 1   
@<TRIPOS>SUBSTRUCTURE
     1 VH4         1 TEMP              0 ****  ****    0 ROOT
