@<TRIPOS>MOLECULE
VH4
   58    61     1     0     0
SMALL
No Charge or Current Charge


@<TRIPOS>ATOM
      1 C17         49.1670     0.3180    99.3000 c6         1 VH4      -0.091400
      2 C20         49.1600     1.5510   100.2330 c6         1 VH4       0.116700
      3 C22         47.9420     1.4620   101.1840 c6         1 VH4      -0.091400
      4 C05         47.9910    -2.4790   101.9200 c3         1 VH4       0.189000
      5 C06         47.9910    -3.7240   100.9950 c3         1 VH4      -0.122600
      6 C12         48.0000    -1.1200   101.1010 c6         1 VH4      -0.040700
      7 C14         49.2000    -1.0050   100.1040 c6         1 VH4      -0.067400
      8 C25         47.9600     0.1520   102.0100 c6         1 VH4      -0.067400
      9 C33         48.7360     4.9310    97.5760 c6         1 VH4       0.083000
     10 C36         49.7650     5.1720    96.4410 c6         1 VH4      -0.044100
     11 C39         50.5300     6.4250    96.7740 cc         1 VH4      -0.131300
     12 C40         50.5750     7.0010    98.0030 cd         1 VH4      -0.226300
     13 C41         49.8730     6.4500    99.2260 c6         1 VH4       0.167300
     14 C44         51.3690     8.1700    97.9010 cd         1 VH4       0.269900
     15 C48         51.5620     7.0960    94.6430 ca         1 VH4       0.048800
     16 C49         51.2800     8.1150    93.7100 ca         1 VH4      -0.113000
     17 C51         51.5450     7.9240    92.3420 ca         1 VH4      -0.074000
     18 C53         52.0980     6.7100    91.8990 ca         1 VH4      -0.154000
     19 C55         52.3850     5.6960    92.8250 ca         1 VH4       0.183000
     20 C57         52.1210     5.8830    94.1900 ca         1 VH4      -0.172000
     21 F56         52.9200     4.5310    92.3990 f          1 VH4      -0.175000
     22 N28         49.1060     2.7820    99.4390 ns         1 VH4      -0.516900
     23 N32         49.3650     5.0750    98.9300 n          1 VH4      -0.388800
     24 N46         51.8280     8.3700    96.6740 nc         1 VH4      -0.508800
     25 N47         51.2920     7.2890    96.0010 na         1 VH4       0.224000
     26 O10         49.1600    -2.5730   102.7370 oh         1 VH4      -0.658000
     27 O31         50.0300     4.1920   100.9520 o          1 VH4      -0.627100
     28 H19         48.2790     0.3320    98.6520 hc         1 VH4       0.041950
     29 H18         50.0390     0.3630    98.6340 hc         1 VH4       0.041950
     30 H21         50.0870     1.5540   100.8290 h1         1 VH4       0.086700
     31 H23         47.9390     2.3230   101.8670 hc         1 VH4       0.041950
     32 H24         47.0100     1.5210   100.6050 hc         1 VH4       0.041950
     33 H03         46.7220    -3.5730   103.3470 hc         1 VH4       0.040700
     34 H04         46.8190    -1.8440   103.6770 hc         1 VH4       0.040700
     35 H02         45.8360    -2.4330   102.3200 hc         1 VH4       0.040700
     36 H09         47.8750    -4.6490   101.5740 hc         1 VH4       0.040700
     37 H07         47.1640    -3.6720   100.2770 hc         1 VH4       0.040700
     38 H08         48.9290    -3.8130   100.4340 hc         1 VH4       0.040700
     39 H13         47.0760    -1.1280   100.5050 hc         1 VH4       0.041700
     40 H15         49.1900    -1.8360    99.3880 hc         1 VH4       0.050950
     41 H16         50.1510    -1.0760   100.6500 hc         1 VH4       0.050950
     42 H27         48.8260     0.1590   102.6860 hc         1 VH4       0.050950
     43 H26         47.0670     0.1430   102.6490 hc         1 VH4       0.050950
     44 H35         47.9380     5.6830    97.4900 h1         1 VH4       0.057200
     45 H34         48.2540     3.9540    97.4380 h1         1 VH4       0.057200
     46 H37         49.2520     5.2540    95.4740 hc         1 VH4       0.065200
     47 H38         50.4450     4.3120    96.3740 hc         1 VH4       0.065200
     48 H43         50.5720     6.4330   100.0750 h1         1 VH4       0.076200
     49 H42         49.0290     7.0960    99.5050 h1         1 VH4       0.076200
     50 H45         51.6190     8.8760    98.6840 h4         1 VH4       0.043100
     51 H50         50.8500     9.0560    94.0480 ha         1 VH4       0.144000
     52 H52         51.3230     8.7150    91.6280 ha         1 VH4       0.124000
     53 H54         52.3060     6.5560    90.8430 ha         1 VH4       0.136000
     54 H58         52.3570     5.0890    94.8930 ha         1 VH4       0.142000
     55 H29         48.7190     2.7270    98.5080 hn         1 VH4       0.303500
     56 H11         49.1020    -3.4250   103.2180 ho         1 VH4       0.439000
     57 C01         46.7710    -2.5850   102.8720 c3         1 VH4      -0.122600
     58 C30         49.5310     4.0210    99.8500 c          1 VH4       0.641100
@<TRIPOS>BOND
     1     1     2 1   
     2     1     7 1   
     3     1    28 1   
     4     1    29 1   
     5     2     3 1   
     6     2    22 1   
     7     2    30 1   
     8     3     8 1   
     9     3    31 1   
    10     3    32 1   
    11     4     5 1   
    12     4     6 1   
    13     4    26 1   
    14     4    57 1   
    15     5    36 1   
    16     5    37 1   
    17     5    38 1   
    18     6     7 1   
    19     6     8 1   
    20     6    39 1   
    21     7    40 1   
    22     7    41 1   
    23     8    42 1   
    24     8    43 1   
    25     9    10 1   
    26     9    23 1   
    27     9    44 1   
    28     9    45 1   
    29    10    11 1   
    30    10    46 1   
    31    10    47 1   
    32    11    12 2   
    33    11    25 1   
    34    12    13 1   
    35    12    14 1   
    36    13    23 1   
    37    13    48 1   
    38    13    49 1   
    39    14    24 2   
    40    14    50 1   
    41    15    16 ar  
    42    15    20 ar  
    43    15    25 1   
    44    16    17 ar  
    45    16    51 1   
    46    17    18 ar  
    47    17    52 1   
    48    18    19 ar  
    49    18    53 1   
    50    19    20 ar  
    51    19    21 1   
    52    20    54 1   
    53    22    55 1   
    54    22    58 1   
    55    23    58 1   
    56    24    25 1   
    57    26    56 1   
    58    27    58 2   
    59    33    57 1   
    60    34    57 1   
    61    35    57 1   
@<TRIPOS>SUBSTRUCTURE
     1 VH4         1 TEMP              0 ****  ****    0 ROOT
