@<TRIPOS>MOLECULE
VH5
   47    50     1     0     0
SMALL
bcc


@<TRIPOS>ATOM
      1 C1         -26.9030     9.6630    13.5120 ca         1 VH5      -0.238300
      2 C2         -25.8040     9.7330    14.4010 ca         1 VH5       0.284600
      3 C3         -24.5860     9.2210    13.9170 ca         1 VH5      -0.334300
      4 C4         -24.5360     8.6880    12.6550 ca         1 VH5       0.468200
      5 C5         -24.9770    10.2560    16.6510 ca         1 VH5       0.080600
      6 C6         -24.6320    11.4500    17.2920 ca         1 VH5      -0.086000
      7 C8         -23.1870    10.2370    18.7830 ca         1 VH5       0.109600
      8 C9         -23.4680     9.0460    18.0980 ca         1 VH5      -0.123800
      9 C12        -22.0970     7.8540    19.7020 cc         1 VH5      -0.320200
     10 C19        -28.1750    10.1440    13.9070 cg         1 VH5       0.244800
     11 N5         -29.1960    10.5410    14.2710 n1         1 VH5      -0.361800
     12 N          -25.5780     8.6140    11.8150 nb         1 VH5      -0.696000
     13 C          -26.7050     9.0940    12.2510 ca         1 VH5       0.584300
     14 CL         -28.0560     9.0120    11.1780 cl         1 VH5      -0.143000
     15 N1         -25.9420    10.2790    15.6230 nu         1 VH5      -0.639000
     16 C10        -24.4140     9.0690    17.0690 ca         1 VH5      -0.073000
     17 C11        -22.8360     7.8210    18.5610 cd         1 VH5       0.234800
     18 N3         -23.0620     6.6640    17.8350 nh         1 VH5      -0.656400
     19 C17        -22.5160     6.6220    16.4780 c6         1 VH5       0.190300
     20 C16        -23.1920     5.5240    15.6840 c6         1 VH5       0.159800
     21 N4         -23.0200     4.2470    16.3430 n3         1 VH5      -0.717600
     22 C18        -23.6030     3.1670    15.5810 c3         1 VH5       0.152100
     23 C15        -23.5410     4.2950    17.6940 c6         1 VH5       0.159800
     24 C14        -22.8660     5.3900    18.5010 c6         1 VH5       0.190300
     25 C13        -21.8410     9.0710    20.4380 c          1 VH5       0.719700
     26 O          -21.1690     9.1320    21.4600 o          1 VH5      -0.622500
     27 N2         -22.3760    10.2080    19.8830 ns         1 VH5      -0.446100
     28 C7         -23.7650    11.4380    18.3590 ca         1 VH5      -0.176000
     29 H1         -23.6860     9.2590    14.5120 ha         1 VH5       0.155000
     30 H2         -23.5980     8.2990    12.2780 h4         1 VH5       0.026100
     31 H3         -25.0690    12.3840    16.9620 ha         1 VH5       0.145000
     32 H4         -21.6200     6.9630    20.0880 ha         1 VH5       0.162000
     33 H5         -26.8030    10.7630    15.8340 hn         1 VH5       0.458800
     34 H6         -24.7270     8.1370    16.6140 ha         1 VH5       0.160000
     35 H7         -21.4340     6.4320    16.5210 h1         1 VH5       0.050200
     36 H8         -22.6510     7.5770    15.9760 h1         1 VH5       0.050200
     37 H9         -24.2570     5.7800    15.5450 h1         1 VH5       0.042450
     38 H10        -22.7400     5.4790    14.6900 h1         1 VH5       0.042450
     39 H12        -23.4060     2.2130    16.0730 h1         1 VH5       0.034700
     40 H13        -24.6920     3.2630    15.4550 h1         1 VH5       0.034700
     41 H14        -23.1550     3.1290    14.5870 h1         1 VH5       0.034700
     42 H15        -24.6310     4.4630    17.7080 h1         1 VH5       0.042450
     43 H16        -23.3550     3.3370    18.1830 h1         1 VH5       0.042450
     44 H17        -21.7990     5.1530    18.6240 h1         1 VH5       0.050200
     45 H18        -23.3150     5.4290    19.4940 h1         1 VH5       0.050200
     46 H19        -22.1950    11.0780    20.3670 hn         1 VH5       0.329500
     47 H20        -23.5300    12.3600    18.8770 ha         1 VH5       0.146000
@<TRIPOS>BOND
     1     1     2 ar  
     2     1    10 1   
     3     1    13 ar  
     4     2     3 ar  
     5     2    15 1   
     6     3     4 ar  
     7     3    29 1   
     8     4    12 ar  
     9     4    30 1   
    10     5     6 ar  
    11     5    15 1   
    12     5    16 ar  
    13     6    28 ar  
    14     6    31 1   
    15     7     8 ar  
    16     7    27 1   
    17     7    28 ar  
    18     8    16 ar  
    19     8    17 1   
    20     9    17 2   
    21     9    25 1   
    22     9    32 1   
    23    10    11 3   
    24    12    13 ar  
    25    13    14 1   
    26    15    33 1   
    27    16    34 1   
    28    17    18 1   
    29    18    19 1   
    30    18    24 1   
    31    19    20 1   
    32    19    35 1   
    33    19    36 1   
    34    20    21 1   
    35    20    37 1   
    36    20    38 1   
    37    21    22 1   
    38    21    23 1   
    39    22    39 1   
    40    22    40 1   
    41    22    41 1   
    42    23    24 1   
    43    23    42 1   
    44    23    43 1   
    45    24    44 1   
    46    24    45 1   
    47    25    26 2   
    48    25    27 1   
    49    27    46 1   
    50    28    47 1   
@<TRIPOS>SUBSTRUCTURE
     1 VH5         1 TEMP              0 ****  ****    0 ROOT
