@<TRIPOS>MOLECULE
VH5
   47    50     1     0     0
SMALL
No Charge or Current Charge


@<TRIPOS>ATOM
      1 C1         -26.9920     9.5340    13.6200 ca         1 VH5      -0.173000
      2 C2         -25.7870     9.6450    14.3270 ca         1 VH5       0.423000
      3 C3         -24.6670     8.9620    13.8470 ca         1 VH5      -0.251000
      4 C4         -24.7840     8.1750    12.7000 ca         1 VH5       0.402900
      5 C5         -24.8540    10.3820    16.6070 ca         1 VH5       0.219000
      6 C6         -24.6510    11.5420    17.3770 ca         1 VH5      -0.068000
      7 C8         -23.2460    10.2930    18.9180 ca         1 VH5       0.109600
      8 C9         -23.4340     9.1240    18.1620 ca         1 VH5      -0.123800
      9 C12        -22.0210     7.8930    19.7850 cc         1 VH5      -0.370200
     10 C19        -28.1790    10.2120    14.0440 cg         1 VH5       0.334000
     11 N5         -29.1380    10.7760    14.3930 n1         1 VH5      -0.451000
     12 N          -25.9400     8.0450    12.0210 nb         1 VH5      -0.696000
     13 C          -27.0170     8.7180    12.4790 ca         1 VH5       0.519000
     14 Cl         -28.4840     8.4950    11.5240 cl         1 VH5      -0.143000
     15 N1         -25.6760    10.4440    15.4720 nu         1 VH5      -0.971000
     16 C10        -24.2600     9.1720    17.0170 ca         1 VH5      -0.055000
     17 C11        -22.7710     7.8940    18.6350 cd         1 VH5       0.234800
     18 N3         -22.8920     6.7400    17.8590 nh         1 VH5      -0.656400
     19 C17        -22.1610     6.6430    16.5600 c6         1 VH5       0.190300
     20 C16        -22.8340     5.6170    15.5950 c6         1 VH5       0.159800
     21 N4         -23.0070     4.2700    16.2220 n3         1 VH5      -0.717600
     22 C18        -23.6120     3.2840    15.3010 c3         1 VH5       0.152100
     23 C15        -23.7550     4.3920    17.5120 c6         1 VH5       0.159800
     24 C14        -23.0940     5.4070    18.4980 c6         1 VH5       0.190300
     25 C13        -21.8300     9.1080    20.5840 c          1 VH5       0.577200
     26 O          -21.1690     9.1470    21.6080 o          1 VH5      -0.547000
     27 N2         -22.4560    10.2190    20.0790 ns         1 VH5      -0.379100
     28 C7         -23.8490    11.4990    18.5320 ca         1 VH5      -0.158000
     29 H1         -23.7040     9.0500    14.3360 ha         1 VH5       0.137000
     30 H2         -23.9240     7.6340    12.3070 h4         1 VH5       0.026100
     31 H3         -25.1130    12.4800    17.0800 ha         1 VH5       0.127000
     32 H4         -21.5140     7.0110    20.1480 ha         1 VH5       0.212000
     33 H5         -26.3450    11.2160    15.4900 hn         1 VH5       0.514000
     34 H6         -24.4640     8.2670    16.4570 ha         1 VH5       0.142000
     35 H7         -21.1240     6.3290    16.7440 h1         1 VH5       0.050200
     36 H8         -22.1150     7.6240    16.0650 h1         1 VH5       0.050200
     37 H9         -23.8120     6.0180    15.2880 h1         1 VH5       0.042450
     38 H10        -22.2210     5.5380    14.6850 h1         1 VH5       0.042450
     39 H12        -23.6750     2.2960    15.7770 h1         1 VH5       0.034700
     40 H13        -24.6260     3.5900    15.0090 h1         1 VH5       0.034700
     41 H14        -23.0080     3.1830    14.3900 h1         1 VH5       0.034700
     42 H15        -24.7870     4.7210    17.3180 h1         1 VH5       0.042450
     43 H16        -23.8200     3.4130    18.0090 h1         1 VH5       0.042450
     44 H17        -22.1270     5.0010    18.8290 h1         1 VH5       0.050200
     45 H18        -23.7310     5.5040    19.3890 h1         1 VH5       0.050200
     46 H19        -22.3370    11.0710    20.6110 hn         1 VH5       0.329500
     47 H20        -23.7010    12.4000    19.1220 ha         1 VH5       0.128000
@<TRIPOS>BOND
     1     1     2 ar  
     2     1    10 1   
     3     1    13 ar  
     4     2     3 ar  
     5     2    15 1   
     6     3     4 ar  
     7     3    29 1   
     8     4    12 ar  
     9     4    30 1   
    10     5     6 ar  
    11     5    15 1   
    12     5    16 ar  
    13     6    28 ar  
    14     6    31 1   
    15     7     8 ar  
    16     7    27 1   
    17     7    28 ar  
    18     8    16 ar  
    19     8    17 1   
    20     9    17 2   
    21     9    25 1   
    22     9    32 1   
    23    10    11 3   
    24    12    13 ar  
    25    13    14 1   
    26    15    33 1   
    27    16    34 1   
    28    17    18 1   
    29    18    19 1   
    30    18    24 1   
    31    19    20 1   
    32    19    35 1   
    33    19    36 1   
    34    20    21 1   
    35    20    37 1   
    36    20    38 1   
    37    21    22 1   
    38    21    23 1   
    39    22    39 1   
    40    22    40 1   
    41    22    41 1   
    42    23    24 1   
    43    23    42 1   
    44    23    43 1   
    45    24    44 1   
    46    24    45 1   
    47    25    26 2   
    48    25    27 1   
    49    27    46 1   
    50    28    47 1   
@<TRIPOS>SUBSTRUCTURE
     1 VH5         1 TEMP              0 ****  ****    0 ROOT
