@<TRIPOS>MOLECULE
VH6
   90    92     1     0     0
SMALL
abcg2


@<TRIPOS>ATOM
      1 C10        131.1200   128.0360   173.3760 c3         1 VH6       0.152800
      2 C13        131.1680   127.5840   176.5200 c3         1 VH6      -0.116400
      3 C15        128.9270   127.7210   171.3030 c3         1 VH6       0.227100
      4 C17        130.6400   128.6190   169.6710 ca         1 VH6      -0.105250
      5 C20        128.6730   129.6300   168.0140 ca         1 VH6      -0.105250
      6 C21        128.3300   128.9480   169.1720 ca         1 VH6      -0.105250
      7 C22        130.3810   130.5070   166.3760 c3         1 VH6       0.227100
      8 C24        129.5880   132.2110   164.8050 c3         1 VH6       0.185800
      9 C26        128.3460   133.7860   163.2090 c3         1 VH6       0.168800
     10 C28        130.5150   134.7640   162.5110 c3         1 VH6       0.151800
     11 C02        127.4030   127.9240   176.7670 c3         1 VH6       0.170300
     12 C03        127.1860   128.6670   175.4500 c3         1 VH6       0.151800
     13 C05        125.5630   129.4360   173.8170 c3         1 VH6       0.168800
     14 C06        126.3600   128.9580   172.5850 c3         1 VH6      -0.097900
     15 C07        127.7780   129.5500   172.4530 c3         1 VH6       0.185800
     16 C09        130.1070   129.1020   172.9510 c3         1 VH6       0.168300
     17 C12        131.1510   126.5610   175.3730 c3         1 VH6       0.178800
     18 C14        129.8280   128.2720   176.7550 c3         1 VH6       0.164300
     19 C16        129.3070   128.4320   170.0240 ca         1 VH6      -0.100800
     20 C18        130.9850   129.3040   168.5120 ca         1 VH6      -0.105250
     21 C19        130.0090   129.8160   167.6650 ca         1 VH6      -0.100800
     22 C25        128.3210   133.0160   164.5290 c3         1 VH6      -0.097900
     23 C29        131.5950   135.6700   163.0830 c3         1 VH6       0.170300
     24 C31        132.9030   136.0590   165.1200 c3         1 VH6       0.164300
     25 C32        133.1330   135.5690   166.5480 c3         1 VH6      -0.116400
     26 C33        133.4520   134.0720   166.6400 c3         1 VH6       0.178800
     27 C35        131.4380   133.0190   167.5370 c3         1 VH6       0.152800
     28 C36        129.9720   132.7720   167.1680 c3         1 VH6       0.168300
     29 N01        128.7280   127.3260   176.8010 n7         1 VH6      -0.883900
     30 N04        125.7880   128.7380   175.0730 n7         1 VH6      -0.878400
     31 N08        128.8430   128.5590   172.4910 n3         1 VH6      -0.755100
     32 N11        130.5160   126.9570   174.1350 n7         1 VH6      -0.882900
     33 N23        129.6600   131.7460   166.1840 n3         1 VH6      -0.755100
     34 N27        129.2680   134.9160   163.2400 n7         1 VH6      -0.878400
     35 N30        131.8040   135.3620   164.4810 n7         1 VH6      -0.883900
     36 N34        132.3220   133.1870   166.3980 n7         1 VH6      -0.882900
     37 H102       131.6310   127.6330   172.4930 h1         1 VH6       0.029950
     38 H101       131.8960   128.5600   173.9460 h1         1 VH6       0.029950
     39 H132       131.4920   127.0630   177.4270 hc         1 VH6       0.039450
     40 H131       131.9180   128.3590   176.3370 hc         1 VH6       0.039450
     41 H151       129.6430   126.9210   171.5040 h1         1 VH6       0.054200
     42 H152       127.9580   127.2350   171.1670 h1         1 VH6       0.054200
     43 H171       131.4240   128.2170   170.3020 ha         1 VH6       0.113500
     44 H201       127.8950   130.0230   167.3710 ha         1 VH6       0.113500
     45 H211       127.2830   128.8010   169.4130 ha         1 VH6       0.113500
     46 H221       131.4730   130.6300   166.3340 h1         1 VH6       0.054200
     47 H222       130.1230   129.8430   165.5450 h1         1 VH6       0.054200
     48 H242       129.5820   131.3320   164.1550 h1         1 VH6       0.034950
     49 H262       128.5660   133.1020   162.3780 h1         1 VH6       0.037700
     50 H261       127.3380   134.1620   163.0200 h1         1 VH6       0.037700
     51 H281       130.8530   133.7300   162.6080 h1         1 VH6       0.042200
     52 H282       130.4100   134.9570   161.4340 h1         1 VH6       0.042200
     53 H022       126.6780   127.1090   176.8410 h1         1 VH6       0.030450
     54 H021       127.2030   128.6000   177.6130 h1         1 VH6       0.030450
     55 H032       127.5630   129.6910   175.5280 h1         1 VH6       0.042200
     56 H031       127.7950   128.1710   174.6840 h1         1 VH6       0.042200
     57 H052       124.4960   129.3550   173.5960 h1         1 VH6       0.037700
     58 H051       125.7600   130.5020   173.9750 h1         1 VH6       0.037700
     59 H061       126.4080   127.8640   172.6050 hc         1 VH6       0.047450
     60 H062       125.7790   129.2120   171.6960 hc         1 VH6       0.047450
     61 H072       127.8340   130.1740   171.5500 h1         1 VH6       0.034950
     62 H071       127.9540   130.2390   173.2820 h1         1 VH6       0.034950
     63 H091       129.8800   129.7240   173.8210 h1         1 VH6       0.038200
     64 H092       130.5920   129.7680   172.2200 h1         1 VH6       0.038200
     65 H122       130.6430   125.6590   175.7190 h1         1 VH6       0.045450
     66 H121       132.1810   126.2580   175.1600 h1         1 VH6       0.045450
     67 H141       129.8930   128.9010   177.6560 h1         1 VH6       0.026450
     68 H142       129.6540   128.9630   175.9290 h1         1 VH6       0.026450
     69 H181       132.0310   129.4370   168.2610 ha         1 VH6       0.113500
     70 H252       127.4630   132.3370   164.5400 hc         1 VH6       0.047450
     71 H251       128.1480   133.7430   165.3270 hc         1 VH6       0.047450
     72 H292       132.5260   135.4930   162.5390 h1         1 VH6       0.030450
     73 H291       131.3320   136.7260   162.9110 h1         1 VH6       0.030450
     74 H312       133.8080   135.8690   164.5340 h1         1 VH6       0.026450
     75 H311       132.7670   137.1530   165.1250 h1         1 VH6       0.026450
     76 H321       133.9640   136.1430   166.9690 hc         1 VH6       0.039450
     77 H322       132.2610   135.8040   167.1670 hc         1 VH6       0.039450
     78 H332       134.2450   133.8440   165.9200 h1         1 VH6       0.045450
     79 H331       133.8670   133.8440   167.6260 h1         1 VH6       0.045450
     80 H352       131.8070   132.1930   168.1570 h1         1 VH6       0.029950
     81 H351       131.4250   133.8990   168.1990 h1         1 VH6       0.029950
     82 H361       129.4540   132.5410   168.1050 h1         1 VH6       0.038200
     83 H362       129.5410   133.7120   166.8180 h1         1 VH6       0.038200
     84 H011       128.8180   126.7450   177.6250 hn         1 VH6       0.421000
     85 H2         125.4320   127.7930   174.9820 hn         1 VH6       0.407500
     86 H111       129.5360   127.1470   174.2910 hn         1 VH6       0.446500
     87 H6         128.7980   135.7520   162.9240 hn         1 VH6       0.407500
     88 H301       130.9380   135.5440   164.9760 hn         1 VH6       0.421000
     89 H8         131.8220   133.5800   165.6100 hn         1 VH6       0.446500
     90 H241       130.4700   132.7890   164.5050 h1         1 VH6       0.034950
@<TRIPOS>BOND
     1     1    16 1   
     2     1    32 1   
     3     1    37 1   
     4     1    38 1   
     5     2    17 1   
     6     2    18 1   
     7     2    39 1   
     8     2    40 1   
     9     3    19 1   
    10     3    31 1   
    11     3    41 1   
    12     3    42 1   
    13     4    19 ar  
    14     4    20 ar  
    15     4    43 1   
    16     5     6 ar  
    17     5    21 ar  
    18     5    44 1   
    19     6    19 ar  
    20     6    45 1   
    21     7    21 1   
    22     7    33 1   
    23     7    46 1   
    24     7    47 1   
    25     8    22 1   
    26     8    33 1   
    27     8    48 1   
    28     8    90 1   
    29     9    22 1   
    30     9    34 1   
    31     9    49 1   
    32     9    50 1   
    33    10    23 1   
    34    10    34 1   
    35    10    51 1   
    36    10    52 1   
    37    11    12 1   
    38    11    29 1   
    39    11    53 1   
    40    11    54 1   
    41    12    30 1   
    42    12    55 1   
    43    12    56 1   
    44    13    14 1   
    45    13    30 1   
    46    13    57 1   
    47    13    58 1   
    48    14    15 1   
    49    14    59 1   
    50    14    60 1   
    51    15    31 1   
    52    15    61 1   
    53    15    62 1   
    54    16    31 1   
    55    16    63 1   
    56    16    64 1   
    57    17    32 1   
    58    17    65 1   
    59    17    66 1   
    60    18    29 1   
    61    18    67 1   
    62    18    68 1   
    63    20    21 ar  
    64    20    69 1   
    65    22    70 1   
    66    22    71 1   
    67    23    35 1   
    68    23    72 1   
    69    23    73 1   
    70    24    25 1   
    71    24    35 1   
    72    24    74 1   
    73    24    75 1   
    74    25    26 1   
    75    25    76 1   
    76    25    77 1   
    77    26    36 1   
    78    26    78 1   
    79    26    79 1   
    80    27    28 1   
    81    27    36 1   
    82    27    80 1   
    83    27    81 1   
    84    28    33 1   
    85    28    82 1   
    86    28    83 1   
    87    29    84 1   
    88    30    85 1   
    89    32    86 1   
    90    34    87 1   
    91    35    88 1   
    92    36    89 1   
@<TRIPOS>SUBSTRUCTURE
     1 VH6         1 TEMP              0 ****  ****    0 ROOT
