@<TRIPOS>MOLECULE
VH6
   90    92     1     0     0
SMALL
No Charge or Current Charge


@<TRIPOS>ATOM
      1 C10        131.2430   128.3060   173.3990 c3         1 VH6       0.152800
      2 C13        131.3210   127.8700   176.5770 c3         1 VH6      -0.116400
      3 C15        128.9840   127.7010   171.3110 c3         1 VH6       0.227100
      4 C17        130.5720   128.7480   169.6050 ca         1 VH6      -0.105250
      5 C20        128.4300   129.4890   167.9510 ca         1 VH6      -0.105250
      6 C21        128.1860   128.8120   169.1580 ca         1 VH6      -0.105250
      7 C22        130.0090   130.5430   166.2510 c3         1 VH6       0.227100
      8 C24        129.4170   132.4830   164.8110 c3         1 VH6       0.185800
      9 C26        128.3250   134.1610   163.1270 c3         1 VH6       0.168800
     10 C28        130.7050   134.5940   162.4140 c3         1 VH6       0.151800
     11 C02        127.4740   127.6570   176.7700 c3         1 VH6       0.170300
     12 C03        127.2040   128.2590   175.3610 c3         1 VH6       0.151800
     13 C05        125.4390   129.1460   173.8000 c3         1 VH6       0.168800
     14 C06        126.2580   128.8110   172.5210 c3         1 VH6      -0.097900
     15 C07        127.6530   129.5000   172.4430 c3         1 VH6       0.185800
     16 C09        130.0790   129.2510   172.9530 c3         1 VH6       0.168300
     17 C12        131.4790   126.8160   175.4480 c3         1 VH6       0.178800
     18 C14        129.8900   128.4080   176.8030 c3         1 VH6       0.164300
     19 C16        129.2540   128.4450   170.0010 ca         1 VH6      -0.100800
     20 C18        130.8160   129.4250   168.3980 ca         1 VH6      -0.105250
     21 C19        129.7460   129.8060   167.5650 ca         1 VH6      -0.100800
     22 C25        128.3090   133.5340   164.5400 c3         1 VH6      -0.097900
     23 C29        131.9470   135.3220   163.0000 c3         1 VH6       0.170300
     24 C31        133.1330   135.8110   165.1480 c3         1 VH6       0.164300
     25 C32        133.2110   135.3870   166.6330 c3         1 VH6      -0.116400
     26 C33        133.4210   133.8680   166.8490 c3         1 VH6       0.178800
     27 C35        131.2170   133.0140   167.6780 c3         1 VH6       0.152800
     28 C36        129.7080   132.8010   167.2940 c3         1 VH6       0.168300
     29 N01        128.9100   127.3090   176.9470 n7         1 VH6      -0.883900
     30 N04        125.7720   128.3000   174.9750 n7         1 VH6      -0.878400
     31 N08        128.8210   128.5780   172.5080 n3         1 VH6      -0.755100
     32 N11        130.7450   127.1710   174.2160 n7         1 VH6      -0.882900
     33 N23        129.3520   131.8740   166.1670 n3         1 VH6      -0.755100
     34 N27        129.4360   135.1260   162.9850 n7         1 VH6      -0.878400
     35 N30        131.9780   135.1950   164.4740 n7         1 VH6      -0.883900
     36 N34        132.1780   133.1400   166.5490 n7         1 VH6      -0.882900
     37 H102       131.7590   127.9190   172.5110 h1         1 VH6       0.029950
     38 H101       131.9730   128.9080   173.9570 h1         1 VH6       0.029950
     39 H132       131.6890   127.4310   177.5120 hc         1 VH6       0.039450
     40 H131       131.9760   128.7220   176.3620 hc         1 VH6       0.039450
     41 H151       129.8010   126.9860   171.4760 h1         1 VH6       0.054200
     42 H152       128.0850   127.0850   171.1730 h1         1 VH6       0.054200
     43 H171       131.4100   128.4600   170.2340 ha         1 VH6       0.113500
     44 H201       127.5950   129.7730   167.3140 ha         1 VH6       0.113500
     45 H211       127.1630   128.5750   169.4420 ha         1 VH6       0.113500
     46 H221       131.0930   130.6420   166.1020 h1         1 VH6       0.054200
     47 H222       129.6450   129.9000   165.4370 h1         1 VH6       0.054200
     48 H242       129.3090   131.6980   164.0490 h1         1 VH6       0.034950
     49 H262       128.3620   133.3780   162.3560 h1         1 VH6       0.037700
     50 H261       127.3740   134.6950   163.0000 h1         1 VH6       0.037700
     51 H281       130.8160   133.5230   162.6290 h1         1 VH6       0.042200
     52 H282       130.7050   134.6980   161.3210 h1         1 VH6       0.042200
     53 H022       126.8670   126.7480   176.8860 h1         1 VH6       0.030450
     54 H021       127.1480   128.3720   177.5380 h1         1 VH6       0.030450
     55 H032       127.6200   129.2750   175.3410 h1         1 VH6       0.042200
     56 H031       127.7580   127.6510   174.6350 h1         1 VH6       0.042200
     57 H052       124.3740   129.0140   173.5630 h1         1 VH6       0.037700
     58 H051       125.5750   130.2100   174.0410 h1         1 VH6       0.037700
     59 H061       126.3400   127.7250   172.4090 hc         1 VH6       0.047450
     60 H062       125.6770   129.1590   171.6590 hc         1 VH6       0.047450
     61 H072       127.7010   130.0950   171.5220 h1         1 VH6       0.034950
     62 H071       127.7130   130.2300   173.2620 h1         1 VH6       0.034950
     63 H091       129.8490   129.8880   173.8170 h1         1 VH6       0.038200
     64 H092       130.4530   129.9240   172.1690 h1         1 VH6       0.038200
     65 H122       131.0910   125.8600   175.8290 h1         1 VH6       0.045450
     66 H121       132.5470   126.6640   175.2390 h1         1 VH6       0.045450
     67 H141       129.8770   129.0540   177.6920 h1         1 VH6       0.026450
     68 H142       129.6450   129.0420   175.9430 h1         1 VH6       0.026450
     69 H181       131.8400   129.6550   168.1110 ha         1 VH6       0.113500
     70 H252       127.3380   133.0450   164.6820 hc         1 VH6       0.047450
     71 H251       128.3570   134.3450   165.2730 hc         1 VH6       0.047450
     72 H292       132.8520   134.8830   162.5580 h1         1 VH6       0.030450
     73 H291       131.9130   136.3800   162.7080 h1         1 VH6       0.030450
     74 H312       134.0660   135.5070   164.6540 h1         1 VH6       0.026450
     75 H311       133.0690   136.9060   165.0860 h1         1 VH6       0.026450
     76 H321       134.0610   135.9120   167.0850 hc         1 VH6       0.039450
     77 H322       132.3180   135.7310   167.1680 hc         1 VH6       0.039450
     78 H332       134.2290   133.5330   166.1820 h1         1 VH6       0.045450
     79 H331       133.7480   133.6760   167.8810 h1         1 VH6       0.045450
     80 H352       131.5310   132.1810   168.3200 h1         1 VH6       0.029950
     81 H351       131.2540   133.9140   168.3060 h1         1 VH6       0.029950
     82 H361       129.2060   132.4500   168.2050 h1         1 VH6       0.038200
     83 H362       129.2860   133.7950   167.1060 h1         1 VH6       0.038200
     84 H011       129.0380   126.8760   177.8700 hn         1 VH6       0.421000
     85 H2         125.4750   127.3360   174.7760 hn         1 VH6       0.407500
     86 H111       129.7810   127.4040   174.4940 hn         1 VH6       0.446500
     87 H6         129.1280   135.9020   162.3870 hn         1 VH6       0.407500
     88 H301       131.1090   135.6230   164.8160 hn         1 VH6       0.421000
     89 H8         131.7450   133.6820   165.7810 hn         1 VH6       0.446500
     90 H241       130.4000   132.9390   164.6560 h1         1 VH6       0.034950
@<TRIPOS>BOND
     1     1    16 1   
     2     1    32 1   
     3     1    37 1   
     4     1    38 1   
     5     2    17 1   
     6     2    18 1   
     7     2    39 1   
     8     2    40 1   
     9     3    19 1   
    10     3    31 1   
    11     3    41 1   
    12     3    42 1   
    13     4    19 ar  
    14     4    20 ar  
    15     4    43 1   
    16     5     6 ar  
    17     5    21 ar  
    18     5    44 1   
    19     6    19 ar  
    20     6    45 1   
    21     7    21 1   
    22     7    33 1   
    23     7    46 1   
    24     7    47 1   
    25     8    22 1   
    26     8    33 1   
    27     8    48 1   
    28     8    90 1   
    29     9    22 1   
    30     9    34 1   
    31     9    49 1   
    32     9    50 1   
    33    10    23 1   
    34    10    34 1   
    35    10    51 1   
    36    10    52 1   
    37    11    12 1   
    38    11    29 1   
    39    11    53 1   
    40    11    54 1   
    41    12    30 1   
    42    12    55 1   
    43    12    56 1   
    44    13    14 1   
    45    13    30 1   
    46    13    57 1   
    47    13    58 1   
    48    14    15 1   
    49    14    59 1   
    50    14    60 1   
    51    15    31 1   
    52    15    61 1   
    53    15    62 1   
    54    16    31 1   
    55    16    63 1   
    56    16    64 1   
    57    17    32 1   
    58    17    65 1   
    59    17    66 1   
    60    18    29 1   
    61    18    67 1   
    62    18    68 1   
    63    20    21 ar  
    64    20    69 1   
    65    22    70 1   
    66    22    71 1   
    67    23    35 1   
    68    23    72 1   
    69    23    73 1   
    70    24    25 1   
    71    24    35 1   
    72    24    74 1   
    73    24    75 1   
    74    25    26 1   
    75    25    76 1   
    76    25    77 1   
    77    26    36 1   
    78    26    78 1   
    79    26    79 1   
    80    27    28 1   
    81    27    36 1   
    82    27    80 1   
    83    27    81 1   
    84    28    33 1   
    85    28    82 1   
    86    28    83 1   
    87    29    84 1   
    88    30    85 1   
    89    32    86 1   
    90    34    87 1   
    91    35    88 1   
    92    36    89 1   
@<TRIPOS>SUBSTRUCTURE
     1 VH6         1 TEMP              0 ****  ****    0 ROOT
