@<TRIPOS>MOLECULE
VH7
   55    58     1     0     0
SMALL
abcg2


@<TRIPOS>ATOM
      1 C17         -5.7040   -11.1680    71.4010 c6         1 VH7      -0.091400
      2 C20         -5.5760    -9.6870    71.7320 c6         1 VH7       0.109700
      3 C22         -6.7930    -9.2200    72.5240 c6         1 VH7      -0.091400
      4 C05         -7.3740   -12.4190    74.7210 c3         1 VH7       0.189000
      5 C06         -7.5840   -13.8850    74.3310 c3         1 VH7      -0.122600
      6 C12         -7.1200   -11.5500    73.4720 c6         1 VH7      -0.040700
      7 C14         -5.9030   -12.0050    72.6590 c6         1 VH7      -0.067400
      8 C25         -6.9840   -10.0560    73.7860 c6         1 VH7      -0.067400
      9 C32         -4.5220    -7.2030    69.0740 cc         1 VH7      -0.178600
     10 C33         -4.4470    -5.7890    68.9330 cc         1 VH7      -0.068000
     11 C35         -4.2470    -5.2210    67.7130 cd         1 VH7      -0.082000
     12 C37         -4.0800    -6.0510    66.5840 cd         1 VH7      -0.065000
     13 C39         -3.7530    -6.9500    64.6730 cc         1 VH7       0.135400
     14 C40         -3.9230    -8.0000    65.5460 cd         1 VH7      -0.274100
     15 C43         -4.3540    -7.9970    67.9810 cd         1 VH7      -0.081000
     16 C45         -3.5010    -7.0180    63.2330 ca         1 VH7      -0.022800
     17 C46         -3.4950    -5.8520    62.4670 ca         1 VH7      -0.087500
     18 C48         -3.2610    -5.9040    61.1010 ca         1 VH7      -0.117000
     19 C50         -3.0270    -7.1220    60.4770 ca         1 VH7      -0.104000
     20 C52         -3.0280    -8.2890    61.2320 ca         1 VH7      -0.117000
     21 C54         -3.2610    -8.2380    62.5970 ca         1 VH7      -0.087500
     22 N28         -5.3850    -8.9290    70.5100 ns         1 VH7      -0.503900
     23 N38         -3.8540    -5.7580    65.3230 nc         1 VH7      -0.288600
     24 N42         -4.1340    -7.4250    66.7680 na         1 VH7       0.127100
     25 O10         -6.2250   -12.2940    75.5500 oh         1 VH7      -0.659000
     26 O31         -4.1770    -7.2360    71.4070 o          1 VH7      -0.587100
     27 H18         -6.5550   -11.3130    70.7260 hc         1 VH7       0.043200
     28 H19         -4.8130   -11.5070    70.8660 hc         1 VH7       0.043200
     29 H21         -4.6840    -9.5460    72.3490 h1         1 VH7       0.082700
     30 H23         -6.6860    -8.1660    72.7880 hc         1 VH7       0.043200
     31 H24         -7.6830    -9.3010    71.8890 hc         1 VH7       0.043200
     32 H04         -8.8290   -12.6160    76.3160 hc         1 VH7       0.041033
     33 H03         -8.5010   -10.9420    75.8810 hc         1 VH7       0.041033
     34 H02         -9.4970   -11.9500    74.8310 hc         1 VH7       0.041033
     35 H07         -7.8270   -14.4820    75.2140 hc         1 VH7       0.041033
     36 H09         -8.4130   -13.9890    73.6300 hc         1 VH7       0.041033
     37 H08         -6.6980   -14.3230    73.8730 hc         1 VH7       0.041033
     38 H13         -8.0070   -11.6710    72.8340 hc         1 VH7       0.042700
     39 H15         -6.0000   -13.0500    72.3620 hc         1 VH7       0.051700
     40 H16         -5.0030   -11.9400    73.2780 hc         1 VH7       0.051700
     41 H27         -6.1350    -9.8980    74.4580 hc         1 VH7       0.051700
     42 H26         -7.8670    -9.6870    74.3110 hc         1 VH7       0.051700
     43 H34         -4.5640    -5.1650    69.8080 ha         1 VH7       0.144000
     44 H36         -4.2020    -4.1490    67.5830 ha         1 VH7       0.147000
     45 H41         -3.9240    -9.0690    65.4150 h4         1 VH7       0.232000
     46 H44         -4.3540    -9.0780    68.0050 h4         1 VH7       0.145000
     47 H47         -3.6790    -4.8990    62.9460 ha         1 VH7       0.120500
     48 H49         -3.2620    -4.9900    60.5230 ha         1 VH7       0.112500
     49 H51         -2.8430    -7.1630    59.4110 ha         1 VH7       0.112000
     50 H53         -2.8420    -9.2430    60.7560 ha         1 VH7       0.112500
     51 H55         -3.2500    -9.1590    63.1660 ha         1 VH7       0.120500
     52 H29         -5.9200    -9.2200    69.7050 hn         1 VH7       0.309500
     53 H11         -6.3580   -12.8390    76.3320 ho         1 VH7       0.440000
     54 C01         -8.6190   -11.9470    75.4780 c3         1 VH7      -0.122600
     55 C30         -4.6830    -7.7870    70.4390 c          1 VH7       0.620700
@<TRIPOS>BOND
     1     1     2 1   
     2     1     7 1   
     3     1    27 1   
     4     1    28 1   
     5     2     3 1   
     6     2    22 1   
     7     2    29 1   
     8     3     8 1   
     9     3    30 1   
    10     3    31 1   
    11     4     5 1   
    12     4     6 1   
    13     4    25 1   
    14     4    54 1   
    15     5    35 1   
    16     5    36 1   
    17     5    37 1   
    18     6     7 1   
    19     6     8 1   
    20     6    38 1   
    21     7    39 1   
    22     7    40 1   
    23     8    41 1   
    24     8    42 1   
    25     9    10 1   
    26     9    15 2   
    27     9    55 1   
    28    10    11 2   
    29    10    43 1   
    30    11    12 1   
    31    11    44 1   
    32    12    23 2   
    33    12    24 1   
    34    13    14 2   
    35    13    16 1   
    36    13    23 1   
    37    14    24 1   
    38    14    45 1   
    39    15    24 1   
    40    15    46 1   
    41    16    17 ar  
    42    16    21 ar  
    43    17    18 ar  
    44    17    47 1   
    45    18    19 ar  
    46    18    48 1   
    47    19    20 ar  
    48    19    49 1   
    49    20    21 ar  
    50    20    50 1   
    51    21    51 1   
    52    22    52 1   
    53    22    55 1   
    54    25    53 1   
    55    26    55 2   
    56    32    54 1   
    57    33    54 1   
    58    34    54 1   
@<TRIPOS>SUBSTRUCTURE
     1 VH7         1 TEMP              0 ****  ****    0 ROOT
