@<TRIPOS>MOLECULE
VH7
   55    58     1     0     0
SMALL
No Charge or Current Charge


@<TRIPOS>ATOM
      1 C17         -5.1820   -11.1050    71.6200 c6         1 VH7      -0.091400
      2 C20         -5.3620    -9.5850    71.8360 c6         1 VH7       0.109700
      3 C22         -6.8330    -9.2960    72.2180 c6         1 VH7      -0.091400
      4 C05         -7.5070   -12.4550    74.5930 c3         1 VH7       0.189000
      5 C06         -7.3380   -13.9830    74.3890 c3         1 VH7      -0.122600
      6 C12         -7.0580   -11.6230    73.3200 c6         1 VH7      -0.040700
      7 C14         -5.5840   -11.9100    72.8810 c6         1 VH7      -0.067400
      8 C25         -7.2560   -10.0800    73.4850 c6         1 VH7      -0.067400
      9 C32         -4.3000    -7.0230    69.1850 cc         1 VH7      -0.178600
     10 C33         -3.8750    -5.6370    69.0580 cc         1 VH7      -0.068000
     11 C35         -3.5830    -5.0770    67.8320 cd         1 VH7      -0.082000
     12 C37         -3.7220    -5.9420    66.7130 cd         1 VH7      -0.065000
     13 C39         -3.7940    -6.8490    64.7810 cc         1 VH7       0.135400
     14 C40         -4.1840    -7.8690    65.6260 cd         1 VH7      -0.274100
     15 C43         -4.4290    -7.8530    68.0590 cd         1 VH7      -0.081000
     16 C45         -3.7210    -7.0290    63.3220 ca         1 VH7      -0.022800
     17 C46         -3.5940    -5.9040    62.4760 ca         1 VH7      -0.087500
     18 C48         -3.4980    -6.0590    61.0820 ca         1 VH7      -0.117000
     19 C50         -3.5170    -7.3420    60.5130 ca         1 VH7      -0.104000
     20 C52         -3.6260    -8.4690    61.3410 ca         1 VH7      -0.117000
     21 C54         -3.7230    -8.3160    62.7350 ca         1 VH7      -0.087500
     22 N28         -4.9930    -8.8560    70.6160 ns         1 VH7      -0.503900
     23 N38         -3.5160    -5.6670    65.4380 nc         1 VH7      -0.288600
     24 N42         -4.1150    -7.2440    66.8430 na         1 VH7       0.127100
     25 O10         -6.7090   -12.1010    75.7250 oh         1 VH7      -0.659000
     26 O31         -4.5020    -6.8590    71.5710 o          1 VH7      -0.587100
     27 H18         -5.7860   -11.4380    70.7640 hc         1 VH7       0.043200
     28 H19         -4.1350   -11.3220    71.3660 hc         1 VH7       0.043200
     29 H21         -4.7030    -9.2600    72.6550 h1         1 VH7       0.082700
     30 H23         -6.9690    -8.2200    72.3940 hc         1 VH7       0.043200
     31 H24         -7.4970    -9.5600    71.3830 hc         1 VH7       0.043200
     32 H04         -9.3090   -12.8440    75.7960 hc         1 VH7       0.041033
     33 H03         -9.1270   -11.1530    75.3330 hc         1 VH7       0.041033
     34 H02         -9.6480   -12.3500    74.1280 hc         1 VH7       0.041033
     35 H07         -7.7540   -14.5460    75.2330 hc         1 VH7       0.041033
     36 H09         -7.8560   -14.3120    73.4790 hc         1 VH7       0.041033
     37 H08         -6.2830   -14.2670    74.3030 hc         1 VH7       0.041033
     38 H13         -7.7150   -11.9540    72.5030 hc         1 VH7       0.042700
     39 H15         -5.4460   -12.9760    72.6590 hc         1 VH7       0.051700
     40 H16         -4.8930   -11.6710    73.7010 hc         1 VH7       0.051700
     41 H27         -6.6790    -9.7170    74.3470 hc         1 VH7       0.051700
     42 H26         -8.3070    -9.8450    73.6940 hc         1 VH7       0.051700
     43 H34         -3.7870    -5.0250    69.9520 ha         1 VH7       0.144000
     44 H36         -3.2690    -4.0420    67.7300 ha         1 VH7       0.147000
     45 H41         -4.4880    -8.8970    65.4720 h4         1 VH7       0.232000
     46 H44         -4.7370    -8.8900    68.0320 h4         1 VH7       0.145000
     47 H47         -3.5750    -4.9010    62.8960 ha         1 VH7       0.120500
     48 H49         -3.4080    -5.1830    60.4430 ha         1 VH7       0.112500
     49 H51         -3.4420    -7.4620    59.4340 ha         1 VH7       0.112000
     50 H53         -3.6320    -9.4650    60.9030 ha         1 VH7       0.112500
     51 H55         -3.7910    -9.2080    63.3520 ha         1 VH7       0.120500
     52 H29         -5.0440    -9.3520    69.7380 hn         1 VH7       0.309500
     53 H11         -7.0290   -12.6410    76.4780 ho         1 VH7       0.440000
     54 C01         -8.9830   -12.1820    74.9840 c3         1 VH7      -0.122600
     55 C30         -4.5970    -7.5370    70.5570 c          1 VH7       0.620700
@<TRIPOS>BOND
     1     1     2 1   
     2     1     7 1   
     3     1    27 1   
     4     1    28 1   
     5     2     3 1   
     6     2    22 1   
     7     2    29 1   
     8     3     8 1   
     9     3    30 1   
    10     3    31 1   
    11     4     5 1   
    12     4     6 1   
    13     4    25 1   
    14     4    54 1   
    15     5    35 1   
    16     5    36 1   
    17     5    37 1   
    18     6     7 1   
    19     6     8 1   
    20     6    38 1   
    21     7    39 1   
    22     7    40 1   
    23     8    41 1   
    24     8    42 1   
    25     9    10 1   
    26     9    15 2   
    27     9    55 1   
    28    10    11 2   
    29    10    43 1   
    30    11    12 1   
    31    11    44 1   
    32    12    23 2   
    33    12    24 1   
    34    13    14 2   
    35    13    16 1   
    36    13    23 1   
    37    14    24 1   
    38    14    45 1   
    39    15    24 1   
    40    15    46 1   
    41    16    17 ar  
    42    16    21 ar  
    43    17    18 ar  
    44    17    47 1   
    45    18    19 ar  
    46    18    48 1   
    47    19    20 ar  
    48    19    49 1   
    49    20    21 ar  
    50    20    50 1   
    51    21    51 1   
    52    22    52 1   
    53    22    55 1   
    54    25    53 1   
    55    26    55 2   
    56    32    54 1   
    57    33    54 1   
    58    34    54 1   
@<TRIPOS>SUBSTRUCTURE
     1 VH7         1 TEMP              0 ****  ****    0 ROOT
