@<TRIPOS>MOLECULE
VH9
   30    30     1     0     0
SMALL
No Charge or Current Charge


@<TRIPOS>ATOM
      1 C7          10.8280     0.2460   -12.6880 ca         1 VH9      -0.150500
      2 C8          11.2620     1.5780   -12.7460 ca         1 VH9       0.165000
      3 C9          11.3460     2.3470   -11.5750 ca         1 VH9      -0.150500
      4 C1           8.0120     1.0070    -5.9360 c3         1 VH9       0.180500
      5 C5          10.5540     0.4390   -10.2670 ca         1 VH9      -0.101300
      6 C6          10.4750    -0.3240   -11.4510 ca         1 VH9      -0.069500
      7 C4          10.1620    -0.1870    -8.9280 c3         1 VH9       0.217600
      8 C3           8.9290     0.4840    -8.2630 c3         1 VH9       0.119800
      9 C2           6.5440     0.7850    -6.3550 c3         1 VH9      -0.105600
     10 F           11.6000     2.1240   -13.9340 f          1 VH9      -0.186000
     11 C10         10.9940     1.7790   -10.3380 ca         1 VH9      -0.069500
     12 O           11.2190    -0.0830    -7.9790 oh         1 VH9      -0.666000
     13 N            8.9340     0.2180    -6.7860 n7         1 VH9      -0.896400
     14 C            8.4110     2.4980    -5.9210 c3         1 VH9      -0.105600
     15 H1          10.7660    -0.3430   -13.5990 ha         1 VH9       0.132000
     16 H2          11.6850     3.3780   -11.6270 ha         1 VH9       0.132000
     17 H3           8.1090     0.6460    -4.9020 h1         1 VH9       0.054700
     18 H4          10.1390    -1.3590   -11.4150 ha         1 VH9       0.123000
     19 H5           9.9220    -1.2480    -9.0830 h1         1 VH9       0.037700
     20 H6           8.9790     1.5620    -8.4610 h1         1 VH9       0.046700
     21 H7           8.0120     0.1070    -8.7370 h1         1 VH9       0.046700
     22 H8           5.8690     1.2800    -5.6450 hc         1 VH9       0.039533
     23 H9           6.3440     1.1970    -7.3510 hc         1 VH9       0.039533
     24 H10          6.2990    -0.2830    -6.3630 hc         1 VH9       0.039533
     25 H11         11.0660     2.3790    -9.4330 ha         1 VH9       0.123000
     26 H12         10.6890     0.1090    -7.1590 ho         1 VH9       0.471000
     27 H13          8.7040    -0.7770    -6.6450 hn         1 VH9       0.415000
     28 H15          7.8200     3.0390    -5.1730 hc         1 VH9       0.039533
     29 H16          9.4700     2.6130    -5.6620 hc         1 VH9       0.039533
     30 H17          8.2360     2.9730    -6.8930 hc         1 VH9       0.039533
@<TRIPOS>BOND
     1     1     2 ar  
     2     1     6 ar  
     3     1    15 1   
     4     2     3 ar  
     5     2    10 1   
     6     3    11 ar  
     7     3    16 1   
     8     4     9 1   
     9     4    13 1   
    10     4    14 1   
    11     4    17 1   
    12     5     6 ar  
    13     5     7 1   
    14     5    11 ar  
    15     6    18 1   
    16     7     8 1   
    17     7    12 1   
    18     7    19 1   
    19     8    13 1   
    20     8    20 1   
    21     8    21 1   
    22     9    22 1   
    23     9    23 1   
    24     9    24 1   
    25    11    25 1   
    26    12    26 1   
    27    13    27 1   
    28    14    28 1   
    29    14    29 1   
    30    14    30 1   
@<TRIPOS>SUBSTRUCTURE
     1 VH9         1 TEMP              0 ****  ****    0 ROOT
