@<TRIPOS>MOLECULE
VH9
   30    30     1     0     0
SMALL
abcg2


@<TRIPOS>ATOM
      1 C7          10.5040     0.2090   -12.5590 ca         1 VH9      -0.150500
      2 C8          11.0340     1.4750   -12.7270 ca         1 VH9       0.165000
      3 C9          11.3910     2.2790   -11.6590 ca         1 VH9      -0.150500
      4 C1           7.9100     0.8770    -6.0560 c3         1 VH9       0.180500
      5 C5          10.6650     0.5200   -10.1580 ca         1 VH9      -0.101300
      6 C6          10.3270    -0.2620   -11.2620 ca         1 VH9      -0.069500
      7 C4          10.3900     0.0120    -8.7670 c3         1 VH9       0.217600
      8 C3           9.0140     0.4730    -8.2660 c3         1 VH9       0.119800
      9 C2           6.4970     0.8920    -6.6470 c3         1 VH9      -0.105600
     10 F           11.2170     1.9450   -13.9900 f          1 VH9      -0.186000
     11 C10         11.1970     1.7920   -10.3710 ca         1 VH9      -0.069500
     12 O           11.3840     0.4720    -7.8540 oh         1 VH9      -0.666000
     13 N            8.8810     0.1090    -6.8570 n7         1 VH9      -0.896400
     14 C            8.4220     2.2900    -5.7890 c3         1 VH9      -0.105600
     15 H1          10.2450    -0.3920   -13.4200 ha         1 VH9       0.132000
     16 H2          11.8070     3.2610   -11.8360 ha         1 VH9       0.132000
     17 H3           7.8660     0.3550    -5.0950 h1         1 VH9       0.054700
     18 H4           9.9220    -1.2550   -11.1090 ha         1 VH9       0.123000
     19 H5          10.3970    -1.0860    -8.7900 h1         1 VH9       0.037700
     20 H6           8.9670     1.5590    -8.3570 h1         1 VH9       0.046700
     21 H7           8.2340     0.0510    -8.9100 h1         1 VH9       0.046700
     22 H8           5.8000     1.3750    -5.9580 hc         1 VH9       0.039533
     23 H9           6.4700     1.4420    -7.5910 hc         1 VH9       0.039533
     24 H10          6.1430    -0.1250    -6.8340 hc         1 VH9       0.039533
     25 H11         11.4690     2.4050    -9.5220 ha         1 VH9       0.123000
     26 H12         10.9280     0.4400    -6.9910 ho         1 VH9       0.471000
     27 H13          8.6580    -0.8780    -6.7880 hn         1 VH9       0.415000
     28 H15          7.7520     2.8080    -5.1010 hc         1 VH9       0.039533
     29 H16          9.4190     2.2600    -5.3460 hc         1 VH9       0.039533
     30 H17          8.4730     2.8800    -6.7070 hc         1 VH9       0.039533
@<TRIPOS>BOND
     1     1     2 ar  
     2     1     6 ar  
     3     1    15 1   
     4     2     3 ar  
     5     2    10 1   
     6     3    11 ar  
     7     3    16 1   
     8     4     9 1   
     9     4    13 1   
    10     4    14 1   
    11     4    17 1   
    12     5     6 ar  
    13     5     7 1   
    14     5    11 ar  
    15     6    18 1   
    16     7     8 1   
    17     7    12 1   
    18     7    19 1   
    19     8    13 1   
    20     8    20 1   
    21     8    21 1   
    22     9    22 1   
    23     9    23 1   
    24     9    24 1   
    25    11    25 1   
    26    12    26 1   
    27    13    27 1   
    28    14    28 1   
    29    14    29 1   
    30    14    30 1   
@<TRIPOS>SUBSTRUCTURE
     1 VH9         1 TEMP              0 ****  ****    0 ROOT
