@<TRIPOS>MOLECULE
VHA
   48    51     1     0     0
SMALL
No Charge or Current Charge


@<TRIPOS>ATOM
      1 C1           1.6130     1.0350    -0.5430 ca         1 VHA      -0.127000
      2 C2           2.2700    -0.0340     0.1080 cp         1 VHA      -0.124500
      3 C3           3.3050     0.2760     1.0350 ca         1 VHA      -0.057300
      4 C4           4.0550    -0.8140     1.7910 c3         1 VHA      -0.042800
      5 C5           3.6170     1.6310     1.3000 ca         1 VHA      -0.090000
      6 C6           2.9040     2.6760     0.6770 ca         1 VHA      -0.161000
      7 C7           1.8960     2.3660    -0.2500 ca         1 VHA       0.123100
      8 O8           1.1140     3.3130    -0.8630 os         1 VHA      -0.366100
      9 C9           0.6990     4.5030    -0.1830 c3         1 VHA       0.166600
     10 C10         -0.6800     4.8980    -0.7650 c3         1 VHA      -0.080400
     11 C11         -1.8900     4.0840    -0.2170 c3         1 VHA      -0.080400
     12 C12         -1.8860     2.5610    -0.5070 c3         1 VHA       0.172600
     13 O13         -3.0660     2.0090     0.1080 os         1 VHA      -0.367100
     14 C14         -3.2240     0.6510     0.3010 ca         1 VHA       0.138100
     15 C15         -2.6070    -0.3170    -0.5240 ca         1 VHA      -0.153000
     16 C16         -4.0090     0.2350     1.3890 ca         1 VHA      -0.120000
     17 C17         -4.1430    -1.1310     1.6880 ca         1 VHA      -0.090000
     18 C18         -3.4850    -2.0890     0.9000 ca         1 VHA      -0.096000
     19 C19         -2.7080    -1.6910    -0.2010 ca         1 VHA      -0.113000
     20 S20         -1.9070    -2.9630    -1.1930 ss         1 VHA      -0.114300
     21 C21         -0.1510    -2.7570    -0.8290 ca         1 VHA       0.266300
     22 N22          0.6940    -3.7190    -1.2530 nb         1 VHA      -0.247000
     23 C23          0.3590    -1.5900    -0.2440 ca         1 VHA      -0.294000
     24 C24          1.7520    -1.4060    -0.1730 cp         1 VHA       0.229500
     25 N25          2.5850    -2.3820    -0.5780 nb         1 VHA      -0.247000
     26 C26          2.0070    -3.4820    -1.0850 ca         1 VHA       0.399900
     27 N27          2.8480    -4.4620    -1.4990 nv         1 VHA      -1.071900
     28 H1           0.8260     0.8280    -1.2640 ha         1 VHA       0.127000
     29 H4           4.7490    -1.3440     1.1280 hc         1 VHA       0.046700
     30 H4A          4.6410    -0.4050     2.6220 hc         1 VHA       0.046700
     31 H4B          3.3630    -1.5510     2.2150 hc         1 VHA       0.046700
     32 H5           4.3990     1.8780     2.0140 ha         1 VHA       0.113000
     33 H6           3.1410     3.7100     0.9130 ha         1 VHA       0.118000
     34 H9           0.6020     4.3350     0.8980 h1         1 VHA       0.039700
     35 H9A          1.4270     5.3080    -0.3480 h1         1 VHA       0.039700
     36 H10         -0.8520     5.9550    -0.5310 hc         1 VHA       0.056200
     37 H10A        -0.6500     4.8280    -1.8590 hc         1 VHA       0.056200
     38 H11         -1.9480     4.2330     0.8680 hc         1 VHA       0.053200
     39 H11A        -2.8090     4.5120    -0.6370 hc         1 VHA       0.053200
     40 H12         -1.8780     2.3780    -1.5900 h1         1 VHA       0.044200
     41 H12A        -0.9910     2.1090    -0.0640 h1         1 VHA       0.044200
     42 H15         -2.0230    -0.0120    -1.3880 ha         1 VHA       0.131000
     43 H16         -4.4950     0.9780     2.0170 ha         1 VHA       0.128000
     44 H17         -4.7450    -1.4460     2.5380 ha         1 VHA       0.119000
     45 H18         -3.5830    -3.1450     1.1440 ha         1 VHA       0.130000
     46 H23         -0.2830    -0.7910     0.0920 ha         1 VHA       0.145000
     47 HN27         2.4610    -5.3850    -1.6870 hn         1 VHA       0.503500
     48 HN2A         3.8220    -4.4260    -1.2060 hn         1 VHA       0.503500
@<TRIPOS>BOND
     1     1     2 ar  
     2     1     7 ar  
     3     1    28 1   
     4     2     3 ar  
     5     2    24 1   
     6     3     4 1   
     7     3     5 ar  
     8     4    29 1   
     9     4    30 1   
    10     4    31 1   
    11     5     6 ar  
    12     5    32 1   
    13     6     7 ar  
    14     6    33 1   
    15     7     8 1   
    16     8     9 1   
    17     9    10 1   
    18     9    34 1   
    19     9    35 1   
    20    10    11 1   
    21    10    36 1   
    22    10    37 1   
    23    11    12 1   
    24    11    38 1   
    25    11    39 1   
    26    12    13 1   
    27    12    40 1   
    28    12    41 1   
    29    13    14 1   
    30    14    15 ar  
    31    14    16 ar  
    32    15    19 ar  
    33    15    42 1   
    34    16    17 ar  
    35    16    43 1   
    36    17    18 ar  
    37    17    44 1   
    38    18    19 ar  
    39    18    45 1   
    40    19    20 1   
    41    20    21 1   
    42    21    22 ar  
    43    21    23 ar  
    44    22    26 ar  
    45    23    24 ar  
    46    23    46 1   
    47    24    25 ar  
    48    25    26 ar  
    49    26    27 1   
    50    27    47 1   
    51    27    48 1   
@<TRIPOS>SUBSTRUCTURE
     1 VHA         1 TEMP              0 ****  ****    0 ROOT
