@<TRIPOS>MOLECULE
VHA
   48    51     1     0     0
SMALL
bcc


@<TRIPOS>ATOM
      1 C1           1.5980     1.0350    -0.5100 ca         1 VHA      -0.145000
      2 C2           2.2920     0.0020     0.1060 cp         1 VHA      -0.124500
      3 C3           3.3280     0.2840     1.0040 ca         1 VHA      -0.057300
      4 C4           4.0970    -0.8000     1.7020 c3         1 VHA      -0.042800
      5 C5           3.5940     1.6260     1.2650 ca         1 VHA      -0.108000
      6 C6           2.8830     2.6660     0.6740 ca         1 VHA      -0.179000
      7 C7           1.8730     2.3660    -0.2310 ca         1 VHA       0.123100
      8 O8           1.1100     3.2700    -0.8800 os         1 VHA      -0.342900
      9 C9           0.6940     4.4530    -0.2060 c3         1 VHA       0.143400
     10 C10         -0.6990     4.8120    -0.6900 c3         1 VHA      -0.080400
     11 C11         -1.8430     3.9670    -0.1300 c3         1 VHA      -0.080400
     12 C12         -1.8490     2.4940    -0.5130 c3         1 VHA       0.149400
     13 O13         -3.0940     1.9640    -0.0550 os         1 VHA      -0.343900
     14 C14         -3.2110     0.6480     0.2040 ca         1 VHA       0.138100
     15 C15         -2.5030    -0.3470    -0.4670 ca         1 VHA      -0.171000
     16 C16         -4.1270     0.2920     1.1970 ca         1 VHA      -0.138000
     17 C17         -4.2960    -1.0340     1.5440 ca         1 VHA      -0.108000
     18 C18         -3.5430    -2.0300     0.9310 ca         1 VHA      -0.114000
     19 C19         -2.6530    -1.6790    -0.0730 ca         1 VHA       0.013900
     20 S20         -1.8120    -3.0120    -0.8950 ss         1 VHA      -0.241200
     21 C21         -0.0950    -2.6910    -0.6610 ca         1 VHA       0.594600
     22 N22          0.6850    -3.6380    -1.1500 nb         1 VHA      -0.773000
     23 C23          0.4060    -1.5340    -0.0930 ca         1 VHA      -0.442600
     24 C24          1.7790    -1.3510    -0.2050 cp         1 VHA       0.557800
     25 N25          2.5890    -2.2890    -0.6690 nb         1 VHA      -0.773000
     26 C26          2.0050    -3.4230    -1.0790 ca         1 VHA       0.925900
     27 N27          2.8080    -4.4090    -1.5050 nv         1 VHA      -0.961500
     28 H1           0.8120     0.8080    -1.2190 ha         1 VHA       0.145000
     29 H4           4.6690    -1.4050     1.0000 hc         1 VHA       0.046700
     30 H4A          4.7910    -0.3740     2.4250 hc         1 VHA       0.046700
     31 H4B          3.4330    -1.4800     2.2390 hc         1 VHA       0.046700
     32 H5           4.3800     1.8730     1.9680 ha         1 VHA       0.131000
     33 H6           3.1280     3.6910     0.9220 ha         1 VHA       0.136000
     34 H9           0.6960     4.2990     0.8790 h1         1 VHA       0.039700
     35 H9A          1.3920     5.2660    -0.4240 h1         1 VHA       0.039700
     36 H10         -0.8830     5.8480    -0.3970 hc         1 VHA       0.056200
     37 H10A        -0.7130     4.8020    -1.7840 hc         1 VHA       0.056200
     38 H11         -1.8500     4.0490     0.9610 hc         1 VHA       0.053200
     39 H11A        -2.7800     4.4090    -0.4810 hc         1 VHA       0.053200
     40 H12         -1.7530     2.3680    -1.5970 h1         1 VHA       0.044200
     41 H12A        -1.0280     1.9520    -0.0350 h1         1 VHA       0.044200
     42 H15         -1.8390    -0.0980    -1.2850 ha         1 VHA       0.149000
     43 H16         -4.6930     1.0670     1.6980 ha         1 VHA       0.146000
     44 H17         -5.0020    -1.2960     2.3210 ha         1 VHA       0.137000
     45 H18         -3.6500    -3.0620     1.2350 ha         1 VHA       0.148000
     46 H23         -0.2170    -0.7730     0.3440 ha         1 VHA       0.163000
     47 HN27         2.4240    -5.3070    -1.7340 hn         1 VHA       0.448300
     48 HN2A         3.8030    -4.3310    -1.3860 hn         1 VHA       0.448300
@<TRIPOS>BOND
     1     1     2 ar  
     2     1     7 ar  
     3     1    28 1   
     4     2     3 ar  
     5     2    24 1   
     6     3     4 1   
     7     3     5 ar  
     8     4    29 1   
     9     4    30 1   
    10     4    31 1   
    11     5     6 ar  
    12     5    32 1   
    13     6     7 ar  
    14     6    33 1   
    15     7     8 1   
    16     8     9 1   
    17     9    10 1   
    18     9    34 1   
    19     9    35 1   
    20    10    11 1   
    21    10    36 1   
    22    10    37 1   
    23    11    12 1   
    24    11    38 1   
    25    11    39 1   
    26    12    13 1   
    27    12    40 1   
    28    12    41 1   
    29    13    14 1   
    30    14    15 ar  
    31    14    16 ar  
    32    15    19 ar  
    33    15    42 1   
    34    16    17 ar  
    35    16    43 1   
    36    17    18 ar  
    37    17    44 1   
    38    18    19 ar  
    39    18    45 1   
    40    19    20 1   
    41    20    21 1   
    42    21    22 ar  
    43    21    23 ar  
    44    22    26 ar  
    45    23    24 ar  
    46    23    46 1   
    47    24    25 ar  
    48    25    26 ar  
    49    26    27 1   
    50    27    47 1   
    51    27    48 1   
@<TRIPOS>SUBSTRUCTURE
     1 VHA         1 TEMP              0 ****  ****    0 ROOT
