@<TRIPOS>MOLECULE
VHB
   40    43     1     0     0
SMALL
abcg2


@<TRIPOS>ATOM
      1 C10         29.4780   -31.6040   -11.0940 ca         1 VHB       0.216000
      2 C11         29.0790   -30.8510   -13.3870 ca         1 VHB       0.422000
      3 C12         28.7340   -29.8070   -14.2780 ca         1 VHB      -0.176000
      4 C13         28.5360   -28.4890   -13.7970 cg         1 VHB       0.334000
      5 C14         28.5930   -30.1110   -15.6340 ca         1 VHB       0.519000
      6 C15         29.0970   -32.2750   -15.3150 ca         1 VHB       0.404900
      7 C16         29.2660   -32.1210   -13.9630 ca         1 VHB      -0.252000
      8 C17         28.5420   -32.6150   -10.8510 ca         1 VHB      -0.063000
      9 C18         28.7680   -33.5410    -9.8610 ca         1 VHB      -0.159000
     10 CL          28.1610   -28.8310   -16.7110 cl         1 VHB      -0.144000
     11 N4          28.4020   -27.4210   -13.3840 n1         1 VHB      -0.452000
     12 N5          28.7580   -31.2900   -16.1590 nb         1 VHB      -0.697000
     13 N3          29.2260   -30.6150   -12.0730 nu         1 VHB      -0.976000
     14 C7          29.9270   -33.4670    -9.0810 ca         1 VHB       0.104600
     15 N2          30.1250   -34.3600    -8.0640 ns         1 VHB      -0.376100
     16 C6          31.1940   -34.3600    -7.2060 c          1 VHB       0.565200
     17 O           31.2810   -35.1810    -6.3030 o          1 VHB      -0.541000
     18 C5          32.1890   -33.3430    -7.4840 cc         1 VHB      -0.294200
     19 C9          30.6290   -31.5370   -10.3400 ca         1 VHB      -0.058000
     20 C8          30.8830   -32.4670    -9.3240 ca         1 VHB      -0.110800
     21 C4          32.0710   -32.4450    -8.4930 cd         1 VHB       0.121600
     22 C2          33.1370   -31.4700    -8.7070 cd         1 VHB      -0.202800
     23 C1          33.7520   -31.0880    -9.8860 cc         1 VHB      -0.149000
     24 C3          33.8370   -30.7500    -7.7190 cd         1 VHB       0.264900
     25 N1          34.7810   -29.9990    -8.2480 nc         1 VHB      -0.516800
     26 N           34.7200   -30.2220    -9.5580 na         1 VHB       0.140800
     27 C           35.6380   -29.5680   -10.4640 c3         1 VHB       0.064900
     28 H1          29.2450   -33.2500   -15.7620 h4         1 VHB       0.027100
     29 H2          29.5520   -32.9720   -13.3620 ha         1 VHB       0.138000
     30 H3          27.6290   -32.6600   -11.4320 ha         1 VHB       0.132000
     31 H4          28.0380   -34.3160    -9.6640 ha         1 VHB       0.128000
     32 H5          29.1940   -29.6600   -11.7450 hn         1 VHB       0.515000
     33 H6          29.4210   -35.0710    -7.9080 hn         1 VHB       0.329500
     34 H7          33.0730   -33.3530    -6.8610 ha         1 VHB       0.215000
     35 H8          31.3320   -30.7380   -10.5280 ha         1 VHB       0.130000
     36 H9          33.5880   -31.3940   -10.9070 h4         1 VHB       0.159000
     37 H10         33.6620   -30.7480    -6.6530 h4         1 VHB       0.047100
     38 H11         36.2860   -28.9200    -9.8830 h1         1 VHB       0.062700
     39 H12         36.2470   -30.3020   -10.9890 h1         1 VHB       0.062700
     40 H13         35.0940   -28.9690   -11.1920 h1         1 VHB       0.062700
@<TRIPOS>BOND
     1     1     8 ar  
     2     1    13 1   
     3     1    19 ar  
     4     2     3 ar  
     5     2     7 ar  
     6     2    13 1   
     7     3     4 1   
     8     3     5 ar  
     9     4    11 3   
    10     5    10 1   
    11     5    12 ar  
    12     6     7 ar  
    13     6    12 ar  
    14     6    28 1   
    15     7    29 1   
    16     8     9 ar  
    17     8    30 1   
    18     9    14 ar  
    19     9    31 1   
    20    13    32 1   
    21    14    15 1   
    22    14    20 ar  
    23    15    16 1   
    24    15    33 1   
    25    16    17 2   
    26    16    18 1   
    27    18    21 2   
    28    18    34 1   
    29    19    20 ar  
    30    19    35 1   
    31    20    21 1   
    32    21    22 1   
    33    22    23 2   
    34    22    24 1   
    35    23    26 1   
    36    23    36 1   
    37    24    25 2   
    38    24    37 1   
    39    25    26 1   
    40    26    27 1   
    41    27    38 1   
    42    27    39 1   
    43    27    40 1   
@<TRIPOS>SUBSTRUCTURE
     1 VHB         1 TEMP              0 ****  ****    0 ROOT
