@<TRIPOS>MOLECULE
VHB
   40    43     1     0     0
SMALL
No Charge or Current Charge


@<TRIPOS>ATOM
      1 C10         29.7560   -31.7430   -11.3860 ca         1 VHB       0.216000
      2 C11         29.0220   -30.9610   -13.7260 ca         1 VHB       0.422000
      3 C12         28.5220   -29.8430   -14.4090 ca         1 VHB      -0.176000
      4 C13         28.5460   -28.5350   -13.8320 cg         1 VHB       0.334000
      5 C14         27.9740   -30.0400   -15.6860 ca         1 VHB       0.519000
      6 C15         28.4160   -32.3050   -15.6320 ca         1 VHB       0.404900
      7 C16         28.9760   -32.2050   -14.3580 ca         1 VHB      -0.252000
      8 C17         28.8760   -32.8250   -11.2020 ca         1 VHB      -0.063000
      9 C18         29.0130   -33.6610   -10.0830 ca         1 VHB      -0.159000
     10 Cl          27.3040   -28.7070   -16.6280 cl         1 VHB      -0.144000
     11 N4          28.5780   -27.4710   -13.3540 n1         1 VHB      -0.452000
     12 N5          27.9160   -31.2440   -16.2940 nb         1 VHB      -0.697000
     13 N3          29.5970   -30.8470   -12.4540 nu         1 VHB      -0.976000
     14 C7          30.0480   -33.4370    -9.1640 ca         1 VHB       0.104600
     15 N2          30.1250   -34.2120    -8.0000 ns         1 VHB      -0.376100
     16 C6          31.0120   -34.0630    -6.9720 c          1 VHB       0.565200
     17 O           30.9690   -34.7660    -5.9760 o          1 VHB      -0.541000
     18 C5          32.0170   -33.0170    -7.1910 cc         1 VHB      -0.294200
     19 C9          30.7830   -31.5230   -10.4480 ca         1 VHB      -0.058000
     20 C8          30.9830   -32.4000    -9.3550 ca         1 VHB      -0.110800
     21 C4          32.0620   -32.2380    -8.3390 cd         1 VHB       0.121600
     22 C2          33.2700   -31.4310    -8.4610 cd         1 VHB      -0.202800
     23 C1          33.7420   -30.8830    -9.6240 cc         1 VHB      -0.149000
     24 C3          34.2140   -31.1260    -7.4480 cd         1 VHB       0.264900
     25 N1          35.2210   -30.4020    -7.8970 nc         1 VHB      -0.516800
     26 N           34.9220   -30.2550    -9.2360 na         1 VHB       0.140800
     27 C           35.8360   -29.5080   -10.1110 c3         1 VHB       0.064900
     28 H1          28.3700   -33.2650   -16.1460 h4         1 VHB       0.027100
     29 H2          29.3860   -33.0900   -13.8850 ha         1 VHB       0.138000
     30 H3          28.0530   -32.9880   -11.8920 ha         1 VHB       0.132000
     31 H4          28.3000   -34.4660    -9.9220 ha         1 VHB       0.128000
     32 H5          29.9710   -29.9140   -12.2670 hn         1 VHB       0.515000
     33 H6          29.4300   -34.9380    -7.8810 hn         1 VHB       0.329500
     34 H7          32.7530   -32.9710    -6.4030 ha         1 VHB       0.215000
     35 H8          31.3870   -30.6340   -10.5640 ha         1 VHB       0.130000
     36 H9          33.4210   -30.9160   -10.6560 h4         1 VHB       0.159000
     37 H10         34.1990   -31.3900    -6.3980 h4         1 VHB       0.047100
     38 H11         36.0390   -28.5220    -9.6750 h1         1 VHB       0.062700
     39 H12         36.7770   -30.0610   -10.2140 h1         1 VHB       0.062700
     40 H13         35.3800   -29.3790   -11.1000 h1         1 VHB       0.062700
@<TRIPOS>BOND
     1     1     8 ar  
     2     1    13 1   
     3     1    19 ar  
     4     2     3 ar  
     5     2     7 ar  
     6     2    13 1   
     7     3     4 1   
     8     3     5 ar  
     9     4    11 3   
    10     5    10 1   
    11     5    12 ar  
    12     6     7 ar  
    13     6    12 ar  
    14     6    28 1   
    15     7    29 1   
    16     8     9 ar  
    17     8    30 1   
    18     9    14 ar  
    19     9    31 1   
    20    13    32 1   
    21    14    15 1   
    22    14    20 ar  
    23    15    16 1   
    24    15    33 1   
    25    16    17 2   
    26    16    18 1   
    27    18    21 2   
    28    18    34 1   
    29    19    20 ar  
    30    19    35 1   
    31    20    21 1   
    32    21    22 1   
    33    22    23 2   
    34    22    24 1   
    35    23    26 1   
    36    23    36 1   
    37    24    25 2   
    38    24    37 1   
    39    25    26 1   
    40    26    27 1   
    41    27    38 1   
    42    27    39 1   
    43    27    40 1   
@<TRIPOS>SUBSTRUCTURE
     1 VHB         1 TEMP              0 ****  ****    0 ROOT
