@<TRIPOS>MOLECULE
VHC
   51    54     1     0     0
SMALL
bcc


@<TRIPOS>ATOM
      1 C1           5.2050    -0.2130    -0.8730 c3         1 VHC      -0.051800
      2 C2           3.8550     0.3920    -0.6150 ca         1 VHC      -0.001300
      3 C3           3.7130     1.7740    -0.6930 ca         1 VHC      -0.159000
      4 C4           2.5130     2.4450    -0.4750 ca         1 VHC      -0.001300
      5 C5           2.4780     3.9370    -0.6320 c3         1 VHC      -0.047800
      6 C6           1.3870     1.6770    -0.1490 cp         1 VHC      -0.171500
      7 C7           1.5180     0.2920    -0.0570 ca         1 VHC      -0.082000
      8 C8           2.7210    -0.3620    -0.2850 ca         1 VHC      -0.163600
      9 C9           2.7690    -1.8580    -0.2390 c          1 VHC       0.682700
     10 O10          3.3810    -2.4970    -1.0860 o          1 VHC      -0.607100
     11 N11          2.0870    -2.4340     0.7670 ns         1 VHC      -0.565900
     12 C13          2.0620    -3.8650     0.9880 c3         1 VHC       0.100000
     13 C14          0.7290    -4.3840     1.5080 c3         1 VHC      -0.096400
     14 C15         -0.4540    -4.1520     0.5860 c3         1 VHC       0.145400
     15 O16         -0.9760    -2.8550     0.8350 os         1 VHC      -0.329900
     16 C17         -1.9340    -2.3610     0.0330 ca         1 VHC       0.143100
     17 C18         -2.3960    -1.0880     0.3620 ca         1 VHC      -0.145000
     18 C19         -2.4720    -3.0220    -1.0720 ca         1 VHC      -0.197000
     19 C20         -3.4160    -2.3760    -1.8600 ca         1 VHC      -0.093000
     20 C21         -3.8180    -1.0770    -1.5890 ca         1 VHC      -0.127000
     21 C22         -3.2960    -0.4380    -0.4690 ca         1 VHC       0.022900
     22 S23         -3.8250     1.2120    -0.0910 ss         1 VHC      -0.235200
     23 C24         -2.2930     2.0560     0.1500 ca         1 VHC       0.586600
     24 N25         -2.4030     3.1790     0.8340 nb         1 VHC      -0.767000
     25 C26         -1.0810     1.5740    -0.3200 ca         1 VHC      -0.431600
     26 C27          0.0510     2.2530     0.1160 cp         1 VHC       0.562800
     27 N28         -0.0320     3.3740     0.8190 nb         1 VHC      -0.783000
     28 C29         -1.2590     3.8250     1.0970 ca         1 VHC       0.922900
     29 N30         -1.3520     4.9950     1.7470 nv         1 VHC      -0.960500
     30 H1           5.4690    -0.9650    -0.1310 hc         1 VHC       0.052033
     31 H1A          5.2410    -0.6990    -1.8480 hc         1 VHC       0.052033
     32 H1B          5.9730     0.5590    -0.8560 hc         1 VHC       0.052033
     33 H3           4.5880     2.3620    -0.9440 ha         1 VHC       0.133000
     34 H5           1.6520     4.2570    -1.2690 hc         1 VHC       0.049700
     35 H5A          2.3460     4.4370     0.3250 hc         1 VHC       0.049700
     36 H5B          3.4050     4.2940    -1.0790 hc         1 VHC       0.049700
     37 H7           0.6440    -0.2950     0.2020 ha         1 VHC       0.142000
     38 HN11         1.7180    -1.8450     1.4970 hn         1 VHC       0.321500
     39 H13          2.2980    -4.3550     0.0440 h1         1 VHC       0.054700
     40 H13A         2.8490    -4.1470     1.6940 h1         1 VHC       0.054700
     41 H14          0.8450    -5.4620     1.6400 hc         1 VHC       0.060200
     42 H14A         0.5080    -3.9840     2.5010 hc         1 VHC       0.060200
     43 H15         -0.1430    -4.2520    -0.4600 h1         1 VHC       0.040700
     44 H15A        -1.2310    -4.9020     0.7710 h1         1 VHC       0.040700
     45 H18         -2.0040    -0.6000     1.2460 ha         1 VHC       0.154000
     46 H19         -2.1680    -4.0250    -1.3330 ha         1 VHC       0.138000
     47 H20         -3.8250    -2.8930    -2.7180 ha         1 VHC       0.135000
     48 H21         -4.5170    -0.5680    -2.2390 ha         1 VHC       0.148000
     49 H26         -1.0100     0.6980    -0.9440 ha         1 VHC       0.167000
     50 HN30        -2.2490     5.4270     1.8800 hn         1 VHC       0.446800
     51 HN3A        -0.5290     5.5590     1.8710 hn         1 VHC       0.446800
@<TRIPOS>BOND
     1     1     2 1   
     2     1    30 1   
     3     1    31 1   
     4     1    32 1   
     5     2     3 ar  
     6     2     8 ar  
     7     3     4 ar  
     8     3    33 1   
     9     4     5 1   
    10     4     6 ar  
    11     5    34 1   
    12     5    35 1   
    13     5    36 1   
    14     6     7 ar  
    15     6    26 1   
    16     7     8 ar  
    17     7    37 1   
    18     8     9 1   
    19     9    10 2   
    20     9    11 1   
    21    11    12 1   
    22    11    38 1   
    23    12    13 1   
    24    12    39 1   
    25    12    40 1   
    26    13    14 1   
    27    13    41 1   
    28    13    42 1   
    29    14    15 1   
    30    14    43 1   
    31    14    44 1   
    32    15    16 1   
    33    16    17 ar  
    34    16    18 ar  
    35    17    21 ar  
    36    17    45 1   
    37    18    19 ar  
    38    18    46 1   
    39    19    20 ar  
    40    19    47 1   
    41    20    21 ar  
    42    20    48 1   
    43    21    22 1   
    44    22    23 1   
    45    23    24 ar  
    46    23    25 ar  
    47    24    28 ar  
    48    25    26 ar  
    49    25    49 1   
    50    26    27 ar  
    51    27    28 ar  
    52    28    29 1   
    53    29    50 1   
    54    29    51 1   
@<TRIPOS>SUBSTRUCTURE
     1 VHC         1 TEMP              0 ****  ****    0 ROOT
