@<TRIPOS>MOLECULE
VHC
   51    54     1     0     0
SMALL
No Charge or Current Charge


@<TRIPOS>ATOM
      1 C1           5.3940    -0.0740    -0.8940 c3         1 VHC      -0.051800
      2 C2           3.9860     0.4720    -0.6620 ca         1 VHC      -0.001300
      3 C3           3.7970     1.8570    -0.8370 ca         1 VHC      -0.141000
      4 C4           2.5540     2.4720    -0.6160 ca         1 VHC      -0.001300
      5 C5           2.4370     3.9760    -0.8510 c3         1 VHC      -0.047800
      6 C6           1.4510     1.6820    -0.2050 cp         1 VHC      -0.171500
      7 C7           1.6390     0.2870    -0.0480 ca         1 VHC      -0.064000
      8 C8           2.8900    -0.3450    -0.2590 ca         1 VHC      -0.163600
      9 C9           3.0220    -1.8520    -0.0430 c          1 VHC       0.615700
     10 O10          3.9480    -2.5180    -0.4820 o          1 VHC      -0.607100
     11 N11          2.0090    -2.4680     0.6650 ns         1 VHC      -0.498900
     12 C13          1.9770    -3.8980     0.9800 c3         1 VHC       0.100000
     13 C14          0.6470    -4.3570     1.6150 c3         1 VHC      -0.096400
     14 C15         -0.5830    -4.1850     0.6990 c3         1 VHC       0.168600
     15 O16         -1.0250    -2.8190     0.7920 os         1 VHC      -0.353100
     16 C17         -2.0190    -2.3110    -0.0200 ca         1 VHC       0.143100
     17 C18         -2.4350    -0.9900     0.2070 ca         1 VHC      -0.127000
     18 C19         -2.5920    -3.0500    -1.0780 ca         1 VHC      -0.179000
     19 C20         -3.5540    -2.4520    -1.9100 ca         1 VHC      -0.075000
     20 C21         -3.9350    -1.1160    -1.7020 ca         1 VHC      -0.109000
     21 C22         -3.3700    -0.3740    -0.6510 ca         1 VHC      -0.104000
     22 S23         -3.8560     1.3440    -0.4410 ss         1 VHC      -0.108300
     23 C24         -2.3140     2.1160     0.0600 ca         1 VHC       0.258300
     24 N25         -2.3820     3.1210     0.9540 nb         1 VHC      -0.241000
     25 C26         -1.0710     1.6700    -0.4260 ca         1 VHC      -0.283000
     26 C27          0.1030     2.2580     0.0870 cp         1 VHC       0.234500
     27 N28          0.0170     3.2660     0.9760 nb         1 VHC      -0.257000
     28 C29         -1.2120     3.6400     1.3520 ca         1 VHC       0.396900
     29 N30         -1.2800     4.6560     2.2470 nv         1 VHC      -1.070900
     30 H1           5.7510    -0.6370    -0.0240 hc         1 VHC       0.052033
     31 H1A          5.4240    -0.7330    -1.7700 hc         1 VHC       0.052033
     32 H1B          6.1220     0.7270    -1.0710 hc         1 VHC       0.052033
     33 H3           4.6380     2.4730    -1.1480 ha         1 VHC       0.115000
     34 H5           1.5010     4.2290    -1.3630 hc         1 VHC       0.049700
     35 H5A          2.4660     4.5240     0.0970 hc         1 VHC       0.049700
     36 H5B          3.2550     4.3540    -1.4760 hc         1 VHC       0.049700
     37 H7           0.7750    -0.3010     0.2530 ha         1 VHC       0.124000
     38 HN11         1.2520    -1.8850     0.9980 hn         1 VHC       0.321500
     39 H13          2.1520    -4.4680     0.0570 h1         1 VHC       0.054700
     40 H13A         2.8010    -4.1190     1.6720 h1         1 VHC       0.054700
     41 H14          0.7420    -5.4220     1.8590 hc         1 VHC       0.060200
     42 H14A         0.4820    -3.8340     2.5650 hc         1 VHC       0.060200
     43 H15         -0.3050    -4.4490    -0.3290 h1         1 VHC       0.040700
     44 H15A        -1.3830    -4.8610     1.0280 h1         1 VHC       0.040700
     45 H18         -2.0020    -0.4390     1.0370 ha         1 VHC       0.136000
     46 H19         -2.3000    -4.0770    -1.2760 ha         1 VHC       0.120000
     47 H20         -3.9940    -3.0200    -2.7280 ha         1 VHC       0.117000
     48 H21         -4.6650    -0.6540    -2.3640 ha         1 VHC       0.130000
     49 H26         -1.0070     0.8590    -1.1440 ha         1 VHC       0.149000
     50 HN30        -2.1770     5.1150     2.3940 hn         1 VHC       0.502000
     51 HN3A        -0.4470     5.2160     2.4140 hn         1 VHC       0.502000
@<TRIPOS>BOND
     1     1     2 1   
     2     1    30 1   
     3     1    31 1   
     4     1    32 1   
     5     2     3 ar  
     6     2     8 ar  
     7     3     4 ar  
     8     3    33 1   
     9     4     5 1   
    10     4     6 ar  
    11     5    34 1   
    12     5    35 1   
    13     5    36 1   
    14     6     7 ar  
    15     6    26 1   
    16     7     8 ar  
    17     7    37 1   
    18     8     9 1   
    19     9    10 2   
    20     9    11 1   
    21    11    12 1   
    22    11    38 1   
    23    12    13 1   
    24    12    39 1   
    25    12    40 1   
    26    13    14 1   
    27    13    41 1   
    28    13    42 1   
    29    14    15 1   
    30    14    43 1   
    31    14    44 1   
    32    15    16 1   
    33    16    17 ar  
    34    16    18 ar  
    35    17    21 ar  
    36    17    45 1   
    37    18    19 ar  
    38    18    46 1   
    39    19    20 ar  
    40    19    47 1   
    41    20    21 ar  
    42    20    48 1   
    43    21    22 1   
    44    22    23 1   
    45    23    24 ar  
    46    23    25 ar  
    47    24    28 ar  
    48    25    26 ar  
    49    25    49 1   
    50    26    27 ar  
    51    27    28 ar  
    52    28    29 1   
    53    29    50 1   
    54    29    51 1   
@<TRIPOS>SUBSTRUCTURE
     1 VHC         1 TEMP              0 ****  ****    0 ROOT
