@<TRIPOS>MOLECULE
VHD
   41    43     1     0     0
SMALL
abcg2


@<TRIPOS>ATOM
      1 C1           2.1660     3.3490     0.1500 c3         1 VHD      -0.087100
      2 C2           3.1460     2.2840     0.6420 c3         1 VHD      -0.000400
      3 C3           3.3190     2.3450     2.1590 c3         1 VHD      -0.087100
      4 C4           2.7250     0.9020     0.1830 ca         1 VHD      -0.211300
      5 C5           1.5260     0.3650     0.6400 ca         1 VHD      -0.009000
      6 C6           1.0560    -0.8830     0.2650 ca         1 VHD      -0.217600
      7 C7          -0.2030    -1.4340     0.8500 c          1 VHD       0.637700
      8 O8          -0.1930    -2.3990     1.6030 o          1 VHD      -0.586100
      9 N9          -1.3390    -0.7990     0.5190 n          1 VHD      -0.417800
     10 C10         -2.6230    -1.2500     1.0470 c5         1 VHD       0.155300
     11 C11         -3.5980    -0.3980     0.2980 ca         1 VHD      -0.101800
     12 C12         -4.9810    -0.3860     0.3850 ca         1 VHD      -0.090500
     13 C13         -5.6930     0.4960    -0.4190 ca         1 VHD      -0.107500
     14 C14         -5.0280     1.3500    -1.2940 ca         1 VHD      -0.107500
     15 C15         -3.6410     1.3350    -1.3780 ca         1 VHD      -0.090500
     16 C16         -2.9370     0.4530    -0.5740 ca         1 VHD      -0.101800
     17 C17         -1.4560     0.2640    -0.4780 c5         1 VHD       0.155300
     18 C18          1.8200    -1.6460    -0.6200 ca         1 VHD       0.213100
     19 O19          1.3410    -2.8480    -0.9880 oh         1 VHD      -0.514100
     20 C20          3.0170    -1.1410    -1.1020 ca         1 VHD      -0.256000
     21 C21          3.4700     0.1160    -0.7050 ca         1 VHD       0.202100
     22 O22          4.6470     0.5010    -1.2350 oh         1 VHD      -0.535100
     23 H11C         2.4850     4.3420     0.4710 hc         1 VHD       0.037533
     24 H12C         2.0970     3.3520    -0.9380 hc         1 VHD       0.037533
     25 H13C         1.1630     3.1820     0.5480 hc         1 VHD       0.037533
     26 H2           4.1200     2.5400     0.2140 hc         1 VHD       0.030700
     27 H31C         2.3810     2.1390     2.6780 hc         1 VHD       0.037533
     28 H32C         4.0570     1.6200     2.5030 hc         1 VHD       0.037533
     29 H33C         3.6530     3.3380     2.4650 hc         1 VHD       0.037533
     30 H5           0.9280     0.9500     1.3300 ha         1 VHD       0.120000
     31 H101        -2.7740    -2.3160     0.8580 h1         1 VHD       0.061700
     32 H102        -2.6830    -1.1010     2.1290 h1         1 VHD       0.061700
     33 H171        -0.9590     1.1840    -0.1590 h1         1 VHD       0.061700
     34 H172        -1.0110    -0.0320    -1.4320 h1         1 VHD       0.061700
     35 H12         -5.5010    -1.0490     1.0660 ha         1 VHD       0.117500
     36 H13         -6.7740     0.5200    -0.3630 ha         1 VHD       0.114500
     37 H14         -5.5970     2.0310    -1.9130 ha         1 VHD       0.114500
     38 H15         -3.1240     2.0010    -2.0580 ha         1 VHD       0.117500
     39 H19          1.9300    -3.2660    -1.6260 ho         1 VHD       0.469000
     40 H20          3.6140    -1.7190    -1.7990 ha         1 VHD       0.132000
     41 H22          4.9040     1.3720    -0.9140 ho         1 VHD       0.471000
@<TRIPOS>BOND
     1     1     2 1   
     2     1    23 1   
     3     1    24 1   
     4     1    25 1   
     5     2     3 1   
     6     2     4 1   
     7     2    26 1   
     8     3    27 1   
     9     3    28 1   
    10     3    29 1   
    11     4     5 ar  
    12     4    21 ar  
    13     5     6 ar  
    14     5    30 1   
    15     6     7 1   
    16     6    18 ar  
    17     7     8 2   
    18     7     9 1   
    19     9    10 1   
    20     9    17 1   
    21    10    11 1   
    22    10    31 1   
    23    10    32 1   
    24    11    12 ar  
    25    11    16 ar  
    26    12    13 ar  
    27    12    35 1   
    28    13    14 ar  
    29    13    36 1   
    30    14    15 ar  
    31    14    37 1   
    32    15    16 ar  
    33    15    38 1   
    34    16    17 1   
    35    17    33 1   
    36    17    34 1   
    37    18    19 1   
    38    18    20 ar  
    39    19    39 1   
    40    20    21 ar  
    41    20    40 1   
    42    21    22 1   
    43    22    41 1   
@<TRIPOS>SUBSTRUCTURE
     1 VHD         1 TEMP              0 ****  ****    0 ROOT
