@<TRIPOS>MOLECULE
VHD
   41    43     1     0     0
SMALL
No Charge or Current Charge


@<TRIPOS>ATOM
      1 C1           2.0370     3.3090     0.1020 c3         1 VHD      -0.087100
      2 C2           3.0790     2.2810     0.5980 c3         1 VHD      -0.000400
      3 C3           3.2660     2.3550     2.1290 c3         1 VHD      -0.087100
      4 C4           2.7180     0.8540     0.1480 ca         1 VHD      -0.211300
      5 C5           1.4940     0.2930     0.5700 ca         1 VHD      -0.009000
      6 C6           1.1070    -1.0060     0.1790 ca         1 VHD      -0.217600
      7 C7          -0.2050    -1.5710     0.6550 c          1 VHD       0.637700
      8 O8          -0.2740    -2.6720     1.1890 o          1 VHD      -0.586100
      9 N9          -1.3320    -0.7290     0.5970 n          1 VHD      -0.417800
     10 C10         -2.6560    -1.1850     1.1370 c5         1 VHD       0.155300
     11 C11         -3.6090    -0.3180     0.3590 ca         1 VHD      -0.101800
     12 C12         -5.0100    -0.3070     0.4520 ca         1 VHD      -0.090500
     13 C13         -5.7390     0.5780    -0.3660 ca         1 VHD      -0.107500
     14 C14         -5.0640     1.4340    -1.2620 ca         1 VHD      -0.107500
     15 C15         -3.6570     1.4080    -1.3410 ca         1 VHD      -0.090500
     16 C16         -2.9490     0.5180    -0.5170 ca         1 VHD      -0.101800
     17 C17         -1.4560     0.3420    -0.4480 c5         1 VHD       0.155300
     18 C18          1.9750    -1.7630    -0.6280 ca         1 VHD       0.213100
     19 O19          1.6320    -3.0110    -1.0520 oh         1 VHD      -0.514100
     20 C20          3.1950    -1.2200    -1.0490 ca         1 VHD      -0.256000
     21 C21          3.5670     0.0740    -0.6700 ca         1 VHD       0.202100
     22 O22          4.7640     0.5490    -1.1100 oh         1 VHD      -0.535100
     23 H11C         2.3540     4.3290     0.3500 hc         1 VHD       0.037533
     24 H12C         1.9230     3.2460    -0.9870 hc         1 VHD       0.037533
     25 H13C         1.0550     3.1390     0.5600 hc         1 VHD       0.037533
     26 H2           4.0340     2.5900     0.1610 hc         1 VHD       0.030700
     27 H31C         2.3310     2.1350     2.6570 hc         1 VHD       0.037533
     28 H32C         4.0240     1.6340     2.4580 hc         1 VHD       0.037533
     29 H33C         3.5980     3.3560     2.4290 hc         1 VHD       0.037533
     30 H5           0.8410     0.8650     1.2260 ha         1 VHD       0.120000
     31 H101        -2.8410    -2.2490     0.9400 h1         1 VHD       0.061700
     32 H102        -2.7350    -1.0020     2.2170 h1         1 VHD       0.061700
     33 H171        -0.9670     1.2770    -0.1440 h1         1 VHD       0.061700
     34 H172        -1.0460     0.0210    -1.4150 h1         1 VHD       0.061700
     35 H12         -5.5240    -0.9700     1.1450 ha         1 VHD       0.117500
     36 H13         -6.8250     0.6010    -0.3080 ha         1 VHD       0.114500
     37 H14         -5.6300     2.1160    -1.8930 ha         1 VHD       0.114500
     38 H15         -3.1300     2.0660    -2.0290 ha         1 VHD       0.117500
     39 H19          2.3690    -3.3630    -1.5940 ho         1 VHD       0.469000
     40 H20          3.8630    -1.7970    -1.6810 ha         1 VHD       0.132000
     41 H22          4.8730     1.4540    -0.7540 ho         1 VHD       0.471000
@<TRIPOS>BOND
     1     1     2 1   
     2     1    23 1   
     3     1    24 1   
     4     1    25 1   
     5     2     3 1   
     6     2     4 1   
     7     2    26 1   
     8     3    27 1   
     9     3    28 1   
    10     3    29 1   
    11     4     5 ar  
    12     4    21 ar  
    13     5     6 ar  
    14     5    30 1   
    15     6     7 1   
    16     6    18 ar  
    17     7     8 2   
    18     7     9 1   
    19     9    10 1   
    20     9    17 1   
    21    10    11 1   
    22    10    31 1   
    23    10    32 1   
    24    11    12 ar  
    25    11    16 ar  
    26    12    13 ar  
    27    12    35 1   
    28    13    14 ar  
    29    13    36 1   
    30    14    15 ar  
    31    14    37 1   
    32    15    16 ar  
    33    15    38 1   
    34    16    17 1   
    35    17    33 1   
    36    17    34 1   
    37    18    19 1   
    38    18    20 ar  
    39    19    39 1   
    40    20    21 ar  
    41    20    40 1   
    42    21    22 1   
    43    22    41 1   
@<TRIPOS>SUBSTRUCTURE
     1 VHD         1 TEMP              0 ****  ****    0 ROOT
