@<TRIPOS>MOLECULE
VHE
   50    52     1     0     0
SMALL
abcg2


@<TRIPOS>ATOM
      1 C1          -1.6430    -1.5730     0.0280 cp         1 VHE      -0.173500
      2 C2          -2.2220    -2.8250     0.2640 ca         1 VHE       0.001700
      3 C3          -1.3900    -3.9420     0.2220 ca         1 VHE      -0.137000
      4 C4          -0.0250    -3.8860    -0.0500 ca         1 VHE      -0.001300
      5 C5           0.5380    -2.6260    -0.2800 ca         1 VHE      -0.166600
      6 C6          -0.2770    -1.5070    -0.2430 ca         1 VHE      -0.068000
      7 C7           1.9860    -2.4350    -0.6060 c          1 VHE       0.607700
      8 C8           0.7790    -5.1530    -0.0670 c3         1 VHE      -0.054800
      9 O9           2.5700    -3.1360    -1.4170 o          1 VHE      -0.583100
     10 N10          2.5870    -1.4080     0.0390 ns         1 VHE      -0.497900
     11 C11         -3.6760    -3.0030     0.5850 c3         1 VHE      -0.050800
     12 C12         -2.3630    -0.2830     0.0510 cp         1 VHE       0.242500
     13 C13         -1.6880     0.8220     0.5580 ca         1 VHE      -0.309000
     14 C14         -2.2320     2.0590     0.2540 ca         1 VHE       0.274300
     15 N15         -3.4390     2.1940    -0.2640 nb         1 VHE      -0.233000
     16 C16         -4.0950     1.0570    -0.5320 ca         1 VHE       0.397900
     17 N17         -3.5700    -0.1750    -0.4830 nb         1 VHE      -0.249000
     18 N18         -5.3780     1.1630    -0.9130 nv         1 VHE      -1.060900
     19 C19          4.0180    -1.1920    -0.0820 c3         1 VHE       0.094000
     20 C20          4.5160     0.0590     0.6360 c3         1 VHE      -0.108400
     21 C21          4.3610     1.3920    -0.0890 c3         1 VHE       0.105000
     22 N22          3.0500     1.9970     0.0790 ns         1 VHE      -0.505900
     23 C23          2.7980     3.2550    -0.3230 c          1 VHE       0.597100
     24 C24          1.4280     3.8430    -0.0120 c3         1 VHE      -0.151400
     25 O25          3.6280     3.9230    -0.9240 o          1 VHE      -0.599100
     26 C26          0.3890     2.8260     0.4180 c3         1 VHE       0.027600
     27 S27         -1.2910     3.5350     0.4510 ss         1 VHE      -0.331300
     28 H3          -1.8280    -4.9120     0.4280 ha         1 VHE       0.117000
     29 H6           0.1590    -0.5460    -0.4830 ha         1 VHE       0.118000
     30 H8           1.0940    -5.4080    -1.0780 hc         1 VHE       0.053367
     31 H8A          1.6820    -5.0690     0.5390 hc         1 VHE       0.053367
     32 H8B          0.1920    -5.9840     0.3220 hc         1 VHE       0.053367
     33 HN10         2.1410    -1.0760     0.8800 hn         1 VHE       0.301500
     34 H11         -4.3030    -2.7970    -0.2820 hc         1 VHE       0.052033
     35 H11A        -3.8730    -4.0220     0.9120 hc         1 VHE       0.052033
     36 H11B        -4.0020    -2.3260     1.3750 hc         1 VHE       0.052033
     37 H13         -0.7630     0.7090     1.0970 ha         1 VHE       0.131000
     38 HN18        -5.7570     2.0670    -1.1320 hn         1 VHE       0.501500
     39 HN1A        -5.8500     0.3560    -1.2800 hn         1 VHE       0.501500
     40 H19          4.5530    -2.0560     0.3230 h1         1 VHE       0.056200
     41 H19A         4.2780    -1.1300    -1.1390 h1         1 VHE       0.056200
     42 H20          4.1030     0.1210     1.6480 hc         1 VHE       0.052200
     43 H20A         5.5880    -0.0850     0.7740 hc         1 VHE       0.052200
     44 H21          5.1160     2.0820     0.2940 h1         1 VHE       0.056700
     45 H21A         4.5720     1.2570    -1.1530 h1         1 VHE       0.056700
     46 HN22         2.3870     1.5200     0.6650 hn         1 VHE       0.308500
     47 H24          1.5650     4.6110     0.7540 hc         1 VHE       0.087200
     48 H24A         1.1020     4.3570    -0.9170 hc         1 VHE       0.087200
     49 H26          0.3640     2.0090    -0.3040 h1         1 VHE       0.066700
     50 H26A         0.6230     2.4220     1.4030 h1         1 VHE       0.066700
@<TRIPOS>BOND
     1     1     2 ar  
     2     1     6 ar  
     3     1    12 1   
     4     2     3 ar  
     5     2    11 1   
     6     3     4 ar  
     7     3    28 1   
     8     4     5 ar  
     9     4     8 1   
    10     5     6 ar  
    11     5     7 1   
    12     6    29 1   
    13     7     9 2   
    14     7    10 1   
    15     8    30 1   
    16     8    31 1   
    17     8    32 1   
    18    10    19 1   
    19    10    33 1   
    20    11    34 1   
    21    11    35 1   
    22    11    36 1   
    23    12    13 ar  
    24    12    17 ar  
    25    13    14 ar  
    26    13    37 1   
    27    14    15 ar  
    28    14    27 1   
    29    15    16 ar  
    30    16    17 ar  
    31    16    18 1   
    32    18    38 1   
    33    18    39 1   
    34    19    20 1   
    35    19    40 1   
    36    19    41 1   
    37    20    21 1   
    38    20    42 1   
    39    20    43 1   
    40    21    22 1   
    41    21    44 1   
    42    21    45 1   
    43    22    23 1   
    44    22    46 1   
    45    23    24 1   
    46    23    25 2   
    47    24    26 1   
    48    24    47 1   
    49    24    48 1   
    50    26    27 1   
    51    26    49 1   
    52    26    50 1   
@<TRIPOS>SUBSTRUCTURE
     1 VHE         1 TEMP              0 ****  ****    0 ROOT
