@<TRIPOS>MOLECULE
VHE
   50    52     1     0     0
SMALL
No Charge or Current Charge


@<TRIPOS>ATOM
      1 C1          -1.5360    -1.5070     0.1290 cp         1 VHE      -0.173500
      2 C2          -2.1520    -2.7280     0.5190 ca         1 VHE       0.001700
      3 C3          -1.3540    -3.8710     0.7130 ca         1 VHE      -0.137000
      4 C4           0.0460    -3.8420     0.5510 ca         1 VHE      -0.001300
      5 C5           0.6830    -2.6290     0.1740 ca         1 VHE      -0.166600
      6 C6          -0.1300    -1.4940    -0.0400 ca         1 VHE      -0.068000
      7 C7           2.1930    -2.4970     0.0200 c          1 VHE       0.607700
      8 C8           0.8120    -5.1460     0.7680 c3         1 VHE      -0.054800
      9 O9           2.9940    -3.2420     0.5670 o          1 VHE      -0.583100
     10 N10          2.6310    -1.4310    -0.7450 ns         1 VHE      -0.497900
     11 C11         -3.6510    -2.8490     0.7770 c3         1 VHE      -0.050800
     12 C12         -2.2780    -0.2200    -0.0820 cp         1 VHE       0.242500
     13 C13         -1.7030     1.0050     0.3170 ca         1 VHE      -0.309000
     14 C14         -2.3440     2.1980    -0.0300 ca         1 VHE       0.274300
     15 N15         -3.5070     2.1880    -0.7050 nb         1 VHE      -0.233000
     16 C16         -3.9910     0.9770    -1.0220 ca         1 VHE       0.397900
     17 N17         -3.4430    -0.2190    -0.7570 nb         1 VHE      -0.249000
     18 N18         -5.1660     0.9580    -1.7000 nv         1 VHE      -1.060900
     19 C19          4.0360    -1.1000    -0.9970 c3         1 VHE       0.094000
     20 C20          4.6620    -0.2050     0.0970 c3         1 VHE      -0.108400
     21 C21          4.3820     1.3070    -0.0550 c3         1 VHE       0.105000
     22 N22          3.0280     1.7080     0.3380 ns         1 VHE      -0.505900
     23 C23          2.5670     3.0070     0.2650 c          1 VHE       0.597100
     24 C24          1.1640     3.2540     0.8240 c3         1 VHE      -0.151400
     25 O25          3.2530     3.9110    -0.1880 o          1 VHE      -0.599100
     26 C26          0.1560     3.5470    -0.3110 c3         1 VHE       0.027600
     27 S27         -1.5690     3.7680     0.3340 ss         1 VHE      -0.331300
     28 H3          -1.8320    -4.8020     1.0060 ha         1 VHE       0.117000
     29 H6           0.3310    -0.5540    -0.3300 ha         1 VHE       0.118000
     30 H8           1.4820    -5.3590    -0.0730 hc         1 VHE       0.053367
     31 H8A          1.4130    -5.1030     1.6850 hc         1 VHE       0.053367
     32 H8B          0.1390    -6.0050     0.8630 hc         1 VHE       0.053367
     33 HN10         1.9190    -0.8790    -1.2050 hn         1 VHE       0.301500
     34 H11         -4.2110    -2.8850    -0.1640 hc         1 VHE       0.052033
     35 H11A        -3.8960    -3.7580     1.3390 hc         1 VHE       0.052033
     36 H11B        -4.0240    -2.0020     1.3650 hc         1 VHE       0.052033
     37 H13         -0.7740     1.0170     0.8690 ha         1 VHE       0.131000
     38 HN18        -5.7210     1.8110    -1.7350 hn         1 VHE       0.501500
     39 HN1A        -5.6740     0.0790    -1.7760 hn         1 VHE       0.501500
     40 H19          4.6060    -2.0370    -1.0570 h1         1 VHE       0.056200
     41 H19A         4.1200    -0.6070    -1.9740 h1         1 VHE       0.056200
     42 H20          4.3660    -0.5520     1.0950 hc         1 VHE       0.052200
     43 H20A         5.7490    -0.3370     0.0390 hc         1 VHE       0.052200
     44 H21          5.0900     1.8580     0.5790 h1         1 VHE       0.056700
     45 H21A         4.5620     1.6130    -1.0940 h1         1 VHE       0.056700
     46 HN22         2.4140     1.0150     0.7480 hn         1 VHE       0.308500
     47 H24          0.8380     2.3840     1.4000 hc         1 VHE       0.087200
     48 H24A         1.2020     4.1310     1.4800 hc         1 VHE       0.087200
     49 H26          0.4550     4.4700    -0.8260 h1         1 VHE       0.066700
     50 H26A         0.1640     2.7330    -1.0490 h1         1 VHE       0.066700
@<TRIPOS>BOND
     1     1     2 ar  
     2     1     6 ar  
     3     1    12 1   
     4     2     3 ar  
     5     2    11 1   
     6     3     4 ar  
     7     3    28 1   
     8     4     5 ar  
     9     4     8 1   
    10     5     6 ar  
    11     5     7 1   
    12     6    29 1   
    13     7     9 2   
    14     7    10 1   
    15     8    30 1   
    16     8    31 1   
    17     8    32 1   
    18    10    19 1   
    19    10    33 1   
    20    11    34 1   
    21    11    35 1   
    22    11    36 1   
    23    12    13 ar  
    24    12    17 ar  
    25    13    14 ar  
    26    13    37 1   
    27    14    15 ar  
    28    14    27 1   
    29    15    16 ar  
    30    16    17 ar  
    31    16    18 1   
    32    18    38 1   
    33    18    39 1   
    34    19    20 1   
    35    19    40 1   
    36    19    41 1   
    37    20    21 1   
    38    20    42 1   
    39    20    43 1   
    40    21    22 1   
    41    21    44 1   
    42    21    45 1   
    43    22    23 1   
    44    22    46 1   
    45    23    24 1   
    46    23    25 2   
    47    24    26 1   
    48    24    47 1   
    49    24    48 1   
    50    26    27 1   
    51    26    49 1   
    52    26    50 1   
@<TRIPOS>SUBSTRUCTURE
     1 VHE         1 TEMP              0 ****  ****    0 ROOT
