@<TRIPOS>MOLECULE
VHF
   21    20     1     0     0
SMALL
No Charge or Current Charge


@<TRIPOS>ATOM
      1 PA         110.8790   114.3880    -3.0470 p5         1 VHF       1.291900
      2 OA1        111.4710   115.1420    -4.1870 o          1 VHF      -0.909167
      3 OA2        111.9500   114.1130    -2.0480 o          1 VHF      -0.909167
      4 OA3        110.3400   113.0790    -3.5130 o          1 VHF      -0.909167
      5 OE2        109.7590   115.2820    -2.3360 os         1 VHF      -0.501500
      6 CD         108.4440   115.2680    -2.6470 c          1 VHF       0.652100
      7 OE1        107.9590   114.8210    -3.6810 o          1 VHF      -0.611000
      8 CG         107.6250   116.1030    -1.6480 c3         1 VHF      -0.155400
      9 CB         106.8260   115.1850    -0.6870 c3         1 VHF      -0.038400
     10 CA         105.8840   115.9360     0.2960 c3         1 VHF       0.009500
     11 C          104.8650   114.9200     0.9620 c          1 VHF       0.696000
     12 O          103.6770   115.0220     0.6870 o          1 VHF      -0.759500
     13 OXT        105.2850   114.1360     1.8050 o          1 VHF      -0.759500
     14 N          106.6700   116.8020     1.2500 n8         1 VHF      -0.984200
     15 HG2        108.3000   116.7170    -1.0390 hc         1 VHF       0.016200
     16 HG3        106.9190   116.7390    -2.1960 hc         1 VHF       0.016200
     17 HB2        106.2150   114.5040    -1.2930 hc         1 VHF       0.057200
     18 HB3        107.5210   114.5530    -0.1200 hc         1 VHF       0.057200
     19 HA         105.2770   116.6240    -0.3090 h1         1 VHF       0.020700
     20 H2         106.0140   117.3240     1.8430 hn         1 VHF       0.360000
     21 H          107.1560   116.1890     1.9150 hn         1 VHF       0.360000
@<TRIPOS>BOND
     1     1     2 1   
     2     1     3 1   
     3     1     4 1   
     4     1     5 1   
     5     5     6 1   
     6     6     7 2   
     7     6     8 1   
     8     8     9 1   
     9     8    15 1   
    10     8    16 1   
    11     9    10 1   
    12     9    17 1   
    13     9    18 1   
    14    10    11 1   
    15    10    14 1   
    16    10    19 1   
    17    11    12 1   
    18    11    13 1   
    19    14    20 1   
    20    14    21 1   
@<TRIPOS>SUBSTRUCTURE
     1 VHF         1 TEMP              0 ****  ****    0 ROOT
