@<TRIPOS>MOLECULE
VHF
   21    20     1     0     0
SMALL
abcg2


@<TRIPOS>ATOM
      1 PA         110.6520   113.9570    -3.1260 p5         1 VHF       1.291900
      2 OA1        111.4400   115.0220    -3.8590 o          1 VHF      -0.909167
      3 OA2        111.3650   113.2760    -1.9750 o          1 VHF      -0.909167
      4 OA3        109.7570   113.0720    -3.9680 o          1 VHF      -0.909167
      5 OE2        109.4670   114.9260    -2.1360 os         1 VHF      -0.501500
      6 CD         108.5370   115.6900    -2.6300 c          1 VHF       0.652100
      7 OE1        108.3710   115.9330    -3.8110 o          1 VHF      -0.611000
      8 CG         107.6300   116.2920    -1.5710 c3         1 VHF      -0.155400
      9 CB         107.0070   115.2600    -0.6330 c3         1 VHF      -0.038400
     10 CA         105.9080   115.8480     0.2580 c3         1 VHF       0.009500
     11 C          105.2470   114.7030     1.0710 c          1 VHF       0.696000
     12 O          104.5340   113.9140     0.4160 o          1 VHF      -0.759500
     13 OXT        105.4940   114.6500     2.2920 o          1 VHF      -0.759500
     14 N          106.4400   116.9490     1.0490 n8         1 VHF      -0.984200
     15 HG2        108.1990   117.0210    -0.9870 hc         1 VHF       0.016200
     16 HG3        106.8400   116.8500    -2.0790 hc         1 VHF       0.016200
     17 HB2        106.5730   114.4450    -1.2170 hc         1 VHF       0.057200
     18 HB3        107.7820   114.8120    -0.0040 hc         1 VHF       0.057200
     19 HA         105.1420   116.2660    -0.4060 h1         1 VHF       0.020700
     20 H2         105.6690   117.4130     1.5150 hn         1 VHF       0.360000
     21 H          106.9840   116.5490     1.8060 hn         1 VHF       0.360000
@<TRIPOS>BOND
     1     1     2 1   
     2     1     3 1   
     3     1     4 1   
     4     1     5 1   
     5     5     6 1   
     6     6     7 2   
     7     6     8 1   
     8     8     9 1   
     9     8    15 1   
    10     8    16 1   
    11     9    10 1   
    12     9    17 1   
    13     9    18 1   
    14    10    11 1   
    15    10    14 1   
    16    10    19 1   
    17    11    12 1   
    18    11    13 1   
    19    14    20 1   
    20    14    21 1   
@<TRIPOS>SUBSTRUCTURE
     1 VHF         1 TEMP              0 ****  ****    0 ROOT
