@<TRIPOS>MOLECULE
VHH
   37    38     1     0     0
SMALL
bcc


@<TRIPOS>ATOM
      1 N1           3.6510    -0.2170    -0.3990 n          1 VHH      -0.486800
      2 S1           1.0880     1.7240    -0.7470 ss         1 VHH      -0.297200
      3 C2           0.6350     0.7950     0.7570 c5         1 VHH       0.029400
      4 N2           1.9770    -1.3220     0.5140 n          1 VHH      -0.482800
      5 C3           3.0150    -1.4170    -0.3590 c          1 VHH       0.829500
      6 O3           3.3210    -2.4190    -0.9890 o          1 VHH      -0.666500
      7 C4           1.8910    -0.0220     1.1320 c5         1 VHH       0.105700
      8 C5           3.1480     0.7090     0.5850 c5         1 VHH       0.096700
      9 C6           2.7140     2.0390    -0.0250 c5         1 VHH      -0.016300
     10 C7          -0.6370    -0.0110     0.5670 c3         1 VHH      -0.062400
     11 C8          -1.8740     0.8400     0.3090 c3         1 VHH      -0.083400
     12 C9          -3.1390    -0.0020     0.1900 c3         1 VHH      -0.053400
     13 C10         -4.3840     0.8350    -0.0480 c3         1 VHH      -0.204400
     14 C11         -5.7020     0.0570    -0.2090 c          1 VHH       0.927600
     15 O11         -6.7280     0.7510    -0.3800 o          1 VHH      -0.847800
     16 O12         -5.6560    -1.1880    -0.1630 o          1 VHH      -0.847800
     17 C17          1.2960    -2.4900     1.0130 c3         1 VHH       0.116300
     18 C18          4.9030    -0.0020    -1.0680 c3         1 VHH       0.112300
     19 H2           0.4780     1.5280     1.5550 h1         1 VHH       0.064700
     20 H4           1.9240    -0.1230     2.2210 h1         1 VHH       0.057700
     21 H5           3.8980     0.8840     1.3640 h1         1 VHH       0.051700
     22 H6           3.4040     2.4050    -0.7840 h1         1 VHH       0.069700
     23 H6A          2.6360     2.8000     0.7530 h1         1 VHH       0.069700
     24 H7          -0.4990    -0.7230    -0.2510 hc         1 VHH       0.051200
     25 H7A         -0.8040    -0.6030     1.4730 hc         1 VHH       0.051200
     26 H8          -1.9890     1.5690     1.1190 hc         1 VHH       0.032200
     27 H8A         -1.7420     1.4260    -0.6080 hc         1 VHH       0.032200
     28 H9          -3.0140    -0.7210    -0.6250 hc         1 VHH       0.038700
     29 H9A         -3.2610    -0.5980     1.0990 hc         1 VHH       0.038700
     30 H10         -4.5080     1.5520     0.7730 hc         1 VHH       0.015700
     31 H10A        -4.2450     1.4560    -0.9420 hc         1 VHH       0.015700
     32 H17          1.9700    -3.3450     1.0390 h1         1 VHH       0.042367
     33 H17A         0.9560    -2.3020     2.0310 h1         1 VHH       0.042367
     34 H17B         0.4240    -2.7610     0.4160 h1         1 VHH       0.042367
     35 H18          5.1300    -0.8610    -1.6940 h1         1 VHH       0.037033
     36 H18A         4.8670     0.8800    -1.7090 h1         1 VHH       0.037033
     37 H18B         5.7200     0.1290    -0.3530 h1         1 VHH       0.037033
@<TRIPOS>BOND
     1     1     5 1   
     2     1     8 1   
     3     1    18 1   
     4     2     3 1   
     5     2     9 1   
     6     3     7 1   
     7     3    10 1   
     8     3    19 1   
     9     4     5 1   
    10     4     7 1   
    11     4    17 1   
    12     5     6 2   
    13     7     8 1   
    14     7    20 1   
    15     8     9 1   
    16     8    21 1   
    17     9    22 1   
    18     9    23 1   
    19    10    11 1   
    20    10    24 1   
    21    10    25 1   
    22    11    12 1   
    23    11    26 1   
    24    11    27 1   
    25    12    13 1   
    26    12    28 1   
    27    12    29 1   
    28    13    14 1   
    29    13    30 1   
    30    13    31 1   
    31    14    15 1   
    32    14    16 1   
    33    17    32 1   
    34    17    33 1   
    35    17    34 1   
    36    18    35 1   
    37    18    36 1   
    38    18    37 1   
@<TRIPOS>SUBSTRUCTURE
     1 VHH         1 TEMP              0 ****  ****    0 ROOT
