@<TRIPOS>MOLECULE
VHH
   37    38     1     0     0
SMALL
No Charge or Current Charge


@<TRIPOS>ATOM
      1 N1           3.8410    -0.2050    -0.1950 n          1 VHH      -0.419800
      2 S1           1.1420     1.3930    -0.9870 ss         1 VHH      -0.393000
      3 C2           0.6370     0.7440     0.6670 c5         1 VHH       0.077300
      4 N2           2.0350    -1.3400     0.5140 n          1 VHH      -0.415800
      5 C3           3.1540    -1.3980    -0.2950 c          1 VHH       0.620000
      6 O3           3.5050    -2.3660    -0.9560 o          1 VHH      -0.591000
      7 C4           1.8980    -0.0330     1.2140 c5         1 VHH       0.105700
      8 C5           3.1850     0.7640     0.7140 c5         1 VHH       0.096700
      9 C6           2.7130     1.9500    -0.1930 c5         1 VHH       0.031600
     10 C7          -0.7080    -0.0240     0.5940 c3         1 VHH      -0.062400
     11 C8          -1.9330     0.8650     0.2760 c3         1 VHH      -0.083400
     12 C9          -3.2620     0.0770     0.2510 c3         1 VHH      -0.053400
     13 C10         -4.4910     0.9650    -0.0640 c3         1 VHH      -0.204400
     14 C11         -5.7750     0.1150    -0.0700 c          1 VHH       0.717000
     15 O11         -6.3740    -0.0320     0.9840 o          1 VHH      -0.742500
     16 O12         -6.1120    -0.4140    -1.1190 o          1 VHH      -0.742500
     17 C17          1.2720    -2.5660     0.8180 c3         1 VHH       0.116300
     18 C18          5.1330    -0.0050    -0.8760 c3         1 VHH       0.112300
     19 H2           0.4700     1.6130     1.3180 h1         1 VHH       0.064700
     20 H4           1.8750    -0.1590     2.3050 h1         1 VHH       0.057700
     21 H5           3.8500     1.0790     1.5280 h1         1 VHH       0.051700
     22 H6           3.4570     2.2350    -0.9500 h1         1 VHH       0.069700
     23 H6A          2.5020     2.8390     0.4170 h1         1 VHH       0.069700
     24 H7          -0.6480    -0.8110    -0.1670 hc         1 VHH       0.051200
     25 H7A         -0.8880    -0.5230     1.5540 hc         1 VHH       0.051200
     26 H8          -2.0020     1.6620     1.0270 hc         1 VHH       0.032200
     27 H8A         -1.7890     1.3530    -0.6960 hc         1 VHH       0.032200
     28 H9          -3.1930    -0.7210    -0.5000 hc         1 VHH       0.038700
     29 H9A         -3.4110    -0.4110     1.2220 hc         1 VHH       0.038700
     30 H10         -4.5320     1.7160     0.7350 hc         1 VHH       0.015700
     31 H10A        -4.3070     1.3900    -1.0590 hc         1 VHH       0.015700
     32 H17          1.9620    -3.3810     1.0740 h1         1 VHH       0.042367
     33 H17A         0.6030    -2.3930     1.6700 h1         1 VHH       0.042367
     34 H17B         0.6780    -2.8600    -0.0560 h1         1 VHH       0.042367
     35 H18          5.8210    -0.8190    -0.6130 h1         1 VHH       0.037033
     36 H18A         4.9800     0.0040    -1.9620 h1         1 VHH       0.037033
     37 H18B         5.5760     0.9500    -0.5660 h1         1 VHH       0.037033
@<TRIPOS>BOND
     1     1     5 1   
     2     1     8 1   
     3     1    18 1   
     4     2     3 1   
     5     2     9 1   
     6     3     7 1   
     7     3    10 1   
     8     3    19 1   
     9     4     5 1   
    10     4     7 1   
    11     4    17 1   
    12     5     6 2   
    13     7     8 1   
    14     7    20 1   
    15     8     9 1   
    16     8    21 1   
    17     9    22 1   
    18     9    23 1   
    19    10    11 1   
    20    10    24 1   
    21    10    25 1   
    22    11    12 1   
    23    11    26 1   
    24    11    27 1   
    25    12    13 1   
    26    12    28 1   
    27    12    29 1   
    28    13    14 1   
    29    13    30 1   
    30    13    31 1   
    31    14    15 1   
    32    14    16 1   
    33    17    32 1   
    34    17    33 1   
    35    17    34 1   
    36    18    35 1   
    37    18    36 1   
    38    18    37 1   
@<TRIPOS>SUBSTRUCTURE
     1 VHH         1 TEMP              0 ****  ****    0 ROOT
