@<TRIPOS>MOLECULE
VHI
   47    49     1     0     0
SMALL
No Charge or Current Charge


@<TRIPOS>ATOM
      1 N1          -1.3270     1.2050    -0.3460 n          1 VHI      -0.382400
      2 S1           1.4670     1.0720     1.4040 ss         1 VHI      -0.396000
      3 C2           2.1480     1.4250    -0.2760 c5         1 VHI       0.065300
      4 N2           0.3610     0.1830    -1.3870 ns         1 VHI      -0.510900
      5 C3          -0.8920     0.0150    -0.8970 c          1 VHI       0.637000
      6 O3          -1.5030    -1.0370    -0.9840 o          1 VHI      -0.531000
      7 C4           0.8840     1.5440    -1.2030 c5         1 VHI       0.102700
      8 C5          -0.2750     2.2500    -0.3800 c5         1 VHI       0.107700
      9 C6           0.2360     2.4160     1.0980 c5         1 VHI       0.034600
     10 C7           3.2140     0.3770    -0.6960 c3         1 VHI      -0.062400
     11 C8           4.5230     0.4380     0.1250 c3         1 VHI      -0.082400
     12 C9           5.5800    -0.5870    -0.3430 c3         1 VHI      -0.053400
     13 C10          6.8930    -0.5260     0.4750 c3         1 VHI      -0.205400
     14 C11          7.8960    -1.5700    -0.0480 c          1 VHI       0.717000
     15 O11          8.6520    -1.2410    -0.9500 o          1 VHI      -0.741500
     16 O12          7.8610    -2.6940     0.4290 o          1 VHI      -0.741500
     17 C17         -2.6090     1.5330     0.1160 c          1 VHI       0.662100
     18 O18         -3.4920     0.4930     0.0630 os         1 VHI      -0.404100
     19 O19         -2.9020     2.6500     0.5230 o          1 VHI      -0.546000
     20 C20         -4.8340     0.7260     0.5150 c3         1 VHI       0.227900
     21 C21         -5.6240    -0.5670     0.3630 ca         1 VHI      -0.096300
     22 C22         -5.6620    -1.5040     1.4150 ca         1 VHI      -0.077500
     23 C23         -6.3920    -2.6980     1.2740 ca         1 VHI      -0.116000
     24 C24         -7.0850    -2.9630     0.0810 ca         1 VHI      -0.098000
     25 C25         -7.0480    -2.0330    -0.9720 ca         1 VHI      -0.116000
     26 C26         -6.3190    -0.8390    -0.8330 ca         1 VHI      -0.077500
     27 H2           2.6460     2.4040    -0.2370 h1         1 VHI       0.071700
     28 HN2          0.8220    -0.5940    -1.8430 hn         1 VHI       0.355500
     29 H4           1.0980     2.0440    -2.1570 h1         1 VHI       0.067700
     30 H5          -0.6230     3.1900    -0.8290 h1         1 VHI       0.081700
     31 H6          -0.5740     2.3780     1.8380 h1         1 VHI       0.082200
     32 H6A          0.7420     3.3830     1.2160 h1         1 VHI       0.082200
     33 H7           2.8000    -0.6360    -0.6160 hc         1 VHI       0.046700
     34 H7A          3.4630     0.5280    -1.7540 hc         1 VHI       0.046700
     35 H8           4.9450     1.4480     0.0530 hc         1 VHI       0.035200
     36 H8A          4.2980     0.2600     1.1840 hc         1 VHI       0.035200
     37 H9           5.1580    -1.5980    -0.2720 hc         1 VHI       0.038200
     38 H9A          5.8080    -0.4110    -1.4020 hc         1 VHI       0.038200
     39 H10          7.2870     0.4890     0.3360 hc         1 VHI       0.016700
     40 H10A         6.6110    -0.7510     1.5120 hc         1 VHI       0.016700
     41 H20         -4.8420     1.0390     1.5680 h1         1 VHI       0.053200
     42 H20A        -5.3110     1.5190    -0.0760 h1         1 VHI       0.053200
     43 H22         -5.1260    -1.3080     2.3410 ha         1 VHI       0.114500
     44 H23         -6.4180    -3.4170     2.0890 ha         1 VHI       0.111500
     45 H24         -7.6490    -3.8870    -0.0280 ha         1 VHI       0.109000
     46 H25         -7.5830    -2.2380    -1.8970 ha         1 VHI       0.111500
     47 H26         -6.2930    -0.1260    -1.6540 ha         1 VHI       0.114500
@<TRIPOS>BOND
     1     1     5 1   
     2     1     8 1   
     3     1    17 1   
     4     2     3 1   
     5     2     9 1   
     6     3     7 1   
     7     3    10 1   
     8     3    27 1   
     9     4     5 1   
    10     4     7 1   
    11     4    28 1   
    12     5     6 2   
    13     7     8 1   
    14     7    29 1   
    15     8     9 1   
    16     8    30 1   
    17     9    31 1   
    18     9    32 1   
    19    10    11 1   
    20    10    33 1   
    21    10    34 1   
    22    11    12 1   
    23    11    35 1   
    24    11    36 1   
    25    12    13 1   
    26    12    37 1   
    27    12    38 1   
    28    13    14 1   
    29    13    39 1   
    30    13    40 1   
    31    14    15 1   
    32    14    16 1   
    33    17    18 1   
    34    17    19 2   
    35    18    20 1   
    36    20    21 1   
    37    20    41 1   
    38    20    42 1   
    39    21    22 ar  
    40    21    26 ar  
    41    22    23 ar  
    42    22    43 1   
    43    23    24 ar  
    44    23    44 1   
    45    24    25 ar  
    46    24    45 1   
    47    25    26 ar  
    48    25    46 1   
    49    26    47 1   
@<TRIPOS>SUBSTRUCTURE
     1 VHI         1 TEMP              0 ****  ****    0 ROOT
