@<TRIPOS>MOLECULE
VHI
   47    49     1     0     0
SMALL
abcg2


@<TRIPOS>ATOM
      1 N1          -1.3230     1.1730    -0.3410 n          1 VHI      -0.382400
      2 S1           1.4840     1.0980     1.4360 ss         1 VHI      -0.396000
      3 C2           2.1290     1.4240    -0.2360 c5         1 VHI       0.065300
      4 N2           0.3180     0.2830    -1.4970 ns         1 VHI      -0.510900
      5 C3          -0.9280     0.0340    -1.0600 c          1 VHI       0.637000
      6 O3          -1.5840    -0.9630    -1.2610 o          1 VHI      -0.531000
      7 C4           0.8750     1.5500    -1.1140 c5         1 VHI       0.102700
      8 C5          -0.2680     2.1750    -0.2710 c5         1 VHI       0.107700
      9 C6           0.2420     2.3840     1.1570 c5         1 VHI       0.034600
     10 C7           3.1380     0.3930    -0.7050 c3         1 VHI      -0.062400
     11 C8           4.3850     0.3180     0.1700 c3         1 VHI      -0.082400
     12 C9           5.4680    -0.5670    -0.4350 c3         1 VHI      -0.053400
     13 C10          6.6880    -0.6920     0.4630 c3         1 VHI      -0.205400
     14 C11          7.8500    -1.5390    -0.0850 c          1 VHI       0.717000
     15 O11          7.7410    -2.0060    -1.2360 o          1 VHI      -0.741500
     16 O12          8.8260    -1.6870     0.6810 o          1 VHI      -0.741500
     17 C17         -2.5720     1.4800     0.1350 c          1 VHI       0.662100
     18 O18         -3.4240     0.4770     0.0590 os         1 VHI      -0.404100
     19 O19         -2.8320     2.5730     0.5840 o          1 VHI      -0.546000
     20 C20         -4.7640     0.7370     0.5130 c3         1 VHI       0.227900
     21 C21         -5.5300    -0.5410     0.3680 ca         1 VHI      -0.096300
     22 C22         -5.7490    -1.3600     1.4700 ca         1 VHI      -0.077500
     23 C23         -6.4500    -2.5520     1.3360 ca         1 VHI      -0.116000
     24 C24         -6.9340    -2.9350     0.0930 ca         1 VHI      -0.098000
     25 C25         -6.7180    -2.1230    -1.0140 ca         1 VHI      -0.116000
     26 C26         -6.0200    -0.9320    -0.8760 ca         1 VHI      -0.077500
     27 H2           2.6130     2.4070    -0.2150 h1         1 VHI       0.071700
     28 HN2          0.7940    -0.3730    -2.0940 hn         1 VHI       0.355500
     29 H4           1.1110     2.1530    -1.9940 h1         1 VHI       0.067700
     30 H5          -0.6110     3.1180    -0.6950 h1         1 VHI       0.081700
     31 H6          -0.5460     2.3210     1.9030 h1         1 VHI       0.082200
     32 H6A          0.7070     3.3680     1.2400 h1         1 VHI       0.082200
     33 H7           2.6740    -0.5950    -0.7580 hc         1 VHI       0.046700
     34 H7A          3.4330     0.6560    -1.7270 hc         1 VHI       0.046700
     35 H8           4.7830     1.3270     0.3280 hc         1 VHI       0.035200
     36 H8A          4.1170    -0.0600     1.1620 hc         1 VHI       0.035200
     37 H9           5.0520    -1.5590    -0.6380 hc         1 VHI       0.038200
     38 H9A          5.7600    -0.1590    -1.4070 hc         1 VHI       0.038200
     39 H10          7.0760     0.3070     0.6950 hc         1 VHI       0.016700
     40 H10A         6.3890    -1.1090     1.4320 hc         1 VHI       0.016700
     41 H20         -4.7490     1.0640     1.5530 h1         1 VHI       0.053200
     42 H20A        -5.2070     1.5320    -0.0900 h1         1 VHI       0.053200
     43 H22         -5.3740    -1.0620     2.4420 ha         1 VHI       0.114500
     44 H23         -6.6180    -3.1780     2.2030 ha         1 VHI       0.111500
     45 H24         -7.4840    -3.8620    -0.0130 ha         1 VHI       0.109000
     46 H25         -7.0980    -2.4170    -1.9840 ha         1 VHI       0.111500
     47 H26         -5.8610    -0.2990    -1.7410 ha         1 VHI       0.114500
@<TRIPOS>BOND
     1     1     5 1   
     2     1     8 1   
     3     1    17 1   
     4     2     3 1   
     5     2     9 1   
     6     3     7 1   
     7     3    10 1   
     8     3    27 1   
     9     4     5 1   
    10     4     7 1   
    11     4    28 1   
    12     5     6 2   
    13     7     8 1   
    14     7    29 1   
    15     8     9 1   
    16     8    30 1   
    17     9    31 1   
    18     9    32 1   
    19    10    11 1   
    20    10    33 1   
    21    10    34 1   
    22    11    12 1   
    23    11    35 1   
    24    11    36 1   
    25    12    13 1   
    26    12    37 1   
    27    12    38 1   
    28    13    14 1   
    29    13    39 1   
    30    13    40 1   
    31    14    15 1   
    32    14    16 1   
    33    17    18 1   
    34    17    19 2   
    35    18    20 1   
    36    20    21 1   
    37    20    41 1   
    38    20    42 1   
    39    21    22 ar  
    40    21    26 ar  
    41    22    23 ar  
    42    22    43 1   
    43    23    24 ar  
    44    23    44 1   
    45    24    25 ar  
    46    24    45 1   
    47    25    26 ar  
    48    25    46 1   
    49    26    47 1   
@<TRIPOS>SUBSTRUCTURE
     1 VHI         1 TEMP              0 ****  ****    0 ROOT
