@<TRIPOS>MOLECULE
VHJ
   77    79     1     0     0
SMALL
No Charge or Current Charge


@<TRIPOS>ATOM
      1 C1          46.1060     9.9150   -18.9300 ca         1 VHJ      -0.098000
      2 C10         42.4840     1.5740   -17.0070 ca         1 VHJ      -0.102500
      3 C11         43.2510     4.7950   -14.9590 c3         1 VHJ       0.055700
      4 C12         42.1180     3.8490   -14.4670 c          1 VHJ       0.583100
      5 C13         42.2620     2.2510   -18.2190 ca         1 VHJ      -0.104500
      6 C14         41.6680     1.4950   -13.6400 c3         1 VHJ       0.041700
      7 C15         42.1160     0.7770   -12.3370 c          1 VHJ       0.587100
      8 C16         40.9520     2.5620   -18.6200 ca         1 VHJ      -0.111000
      9 C17         41.4090    -0.9170   -10.6040 c3         1 VHJ       0.104700
     10 C18         39.8650     2.1940   -17.8090 ca         1 VHJ      -0.104500
     11 C19         40.0570    -1.1610    -9.8830 c3         1 VHJ      -0.069400
     12 C2          44.7330    10.0770   -18.6810 ca         1 VHJ      -0.118000
     13 C20         39.2520     0.1260    -9.5380 c5         1 VHJ      -0.159700
     14 C21         39.9930     1.1440    -8.6260 c5         1 VHJ      -0.094400
     15 C22         38.8060     1.9700    -8.0600 c5         1 VHJ       0.101000
     16 C23         40.0880     1.5210   -16.5950 ca         1 VHJ      -0.102500
     17 C24         37.9590    -0.1440    -8.7570 c          1 VHJ       0.566000
     18 C25         42.1790    -2.2280   -10.9280 c3         1 VHJ       0.150600
     19 C3          43.8500     9.0010   -18.8750 ca         1 VHJ      -0.079500
     20 C30         43.6860     5.8350   -13.8770 c3         1 VHJ      -0.068700
     21 C31         44.7780     6.8090   -14.3920 c3         1 VHJ      -0.093600
     22 C32         44.1470     5.1660   -12.5580 c3         1 VHJ      -0.093600
     23 C34         41.6430     0.5160   -14.8470 c3         1 VHJ      -0.040100
     24 C4          44.3350     7.7540   -19.3190 ca         1 VHJ      -0.131300
     25 C5          45.7140     7.5980   -19.5670 ca         1 VHJ      -0.079500
     26 C6          46.5960     8.6750   -19.3730 ca         1 VHJ      -0.118000
     27 C7          43.3720     6.5860   -19.5240 c3         1 VHJ       0.230900
     28 C8          41.3990     1.2100   -16.1850 ca         1 VHJ      -0.095300
     29 C9          43.5290     5.6170   -17.3290 c          1 VHJ       0.639100
     30 N10         42.7900     5.4670   -16.1920 ns         1 VHJ      -0.478900
     31 N13         42.5460     2.6530   -13.9270 ns         1 VHJ      -0.476900
     32 N16         41.2040    -0.1230   -11.8240 ns         1 VHJ      -0.496900
     33 N23         37.7960     0.9240    -7.9180 ns         1 VHJ      -0.516900
     34 O26         37.2970    -1.1660    -8.6750 o          1 VHJ      -0.558000
     35 O29         44.6690     5.2080   -17.4850 o          1 VHJ      -0.545000
     36 O33         40.9280     4.1250   -14.5720 o          1 VHJ      -0.617100
     37 O38         43.1940     0.9850   -11.7920 o          1 VHJ      -0.609100
     38 O8          42.7650     6.2460   -18.2650 os         1 VHJ      -0.450100
     39 H1          46.7890    10.7490   -18.7800 ha         1 VHJ       0.112000
     40 H3          44.1130     4.1630   -15.2080 h1         1 VHJ       0.076700
     41 H4          43.1050     2.5380   -18.8440 ha         1 VHJ       0.114000
     42 H5          40.6480     1.8620   -13.4660 h1         1 VHJ       0.074700
     43 H6          40.7800     3.0880   -19.5570 ha         1 VHJ       0.112000
     44 H7          42.0440    -0.3320    -9.9240 h1         1 VHJ       0.091700
     45 H8          38.8510     2.4360   -18.1180 ha         1 VHJ       0.114000
     46 H9          39.4410    -1.8190   -10.5080 hc         1 VHJ       0.066700
     47 H10         40.2500    -1.7180    -8.9580 hc         1 VHJ       0.066700
     48 H11         44.3520    11.0370   -18.3370 ha         1 VHJ       0.113000
     49 H12         38.9580     0.6410   -10.4590 hc         1 VHJ       0.094700
     50 H13         40.5310     0.6370    -7.8170 hc         1 VHJ       0.063700
     51 H14         40.7180     1.7640    -9.1680 hc         1 VHJ       0.063700
     52 H15         39.0580     2.4530    -7.1070 h1         1 VHJ       0.040700
     53 H16         39.2410     1.2520   -15.9670 ha         1 VHJ       0.116500
     54 H17         41.5620    -2.8540   -11.5860 h1         1 VHJ       0.023200
     55 H18         43.0960    -1.9740   -11.4770 h1         1 VHJ       0.023200
     56 H19         42.7880     9.1330   -18.6770 ha         1 VHJ       0.117000
     57 H20         42.8050     6.4430   -13.6350 hc         1 VHJ       0.060700
     58 H21         45.0760     7.5100   -13.6030 hc         1 VHJ       0.042200
     59 H22         45.6700     6.2590   -14.7150 hc         1 VHJ       0.042200
     60 H23         44.4150     7.4050   -15.2370 hc         1 VHJ       0.042200
     61 H24         44.4710     5.9230   -11.8330 hc         1 VHJ       0.042200
     62 H25         43.3330     4.5980   -12.0920 hc         1 VHJ       0.042200
     63 H26         44.9880     4.4850   -12.7370 hc         1 VHJ       0.042200
     64 H27         40.8760    -0.2490   -14.6770 hc         1 VHJ       0.065700
     65 H28         42.5990    -0.0230   -14.8820 hc         1 VHJ       0.065700
     66 H29         46.1040     6.6400   -19.9060 ha         1 VHJ       0.117000
     67 H30         47.6590     8.5480   -19.5650 ha         1 VHJ       0.113000
     68 H31         42.6000     6.8930   -20.2410 h1         1 VHJ       0.067200
     69 H32         43.8940     5.7220   -19.9580 h1         1 VHJ       0.067200
     70 H33         41.8380     5.8090   -16.2340 hn         1 VHJ       0.333500
     71 H34         43.5470     2.5250   -13.8250 hn         1 VHJ       0.335500
     72 H35         40.3360    -0.2390   -12.3330 hn         1 VHJ       0.319500
     73 H36         43.0030    -3.7520   -10.0050 ho         1 VHJ       0.448000
     74 H37         38.4800     2.7440    -8.7680 h1         1 VHJ       0.040700
     75 H38         37.0390     0.9110    -7.2450 hn         1 VHJ       0.324500
     76 O1          42.5140    -2.9450    -9.7300 oh         1 VHJ      -0.656000
     77 H2          43.5030     1.3460   -16.7020 ha         1 VHJ       0.116500
@<TRIPOS>BOND
     1     1    12 ar  
     2     1    26 ar  
     3     1    39 1   
     4     2     5 ar  
     5     2    28 ar  
     6     2    77 1   
     7     3     4 1   
     8     3    20 1   
     9     3    30 1   
    10     3    40 1   
    11     4    31 1   
    12     4    36 2   
    13     5     8 ar  
    14     5    41 1   
    15     6     7 1   
    16     6    23 1   
    17     6    31 1   
    18     6    42 1   
    19     7    32 1   
    20     7    37 2   
    21     8    10 ar  
    22     8    43 1   
    23     9    11 1   
    24     9    18 1   
    25     9    32 1   
    26     9    44 1   
    27    10    16 ar  
    28    10    45 1   
    29    11    13 1   
    30    11    46 1   
    31    11    47 1   
    32    12    19 ar  
    33    12    48 1   
    34    13    14 1   
    35    13    17 1   
    36    13    49 1   
    37    14    15 1   
    38    14    50 1   
    39    14    51 1   
    40    15    33 1   
    41    15    52 1   
    42    15    74 1   
    43    16    28 ar  
    44    16    53 1   
    45    17    33 1   
    46    17    34 2   
    47    18    54 1   
    48    18    55 1   
    49    18    76 1   
    50    19    24 ar  
    51    19    56 1   
    52    20    21 1   
    53    20    22 1   
    54    20    57 1   
    55    21    58 1   
    56    21    59 1   
    57    21    60 1   
    58    22    61 1   
    59    22    62 1   
    60    22    63 1   
    61    23    28 1   
    62    23    64 1   
    63    23    65 1   
    64    24    25 ar  
    65    24    27 1   
    66    25    26 ar  
    67    25    66 1   
    68    26    67 1   
    69    27    38 1   
    70    27    68 1   
    71    27    69 1   
    72    29    30 1   
    73    29    35 2   
    74    29    38 1   
    75    30    70 1   
    76    31    71 1   
    77    32    72 1   
    78    33    75 1   
    79    73    76 1   
@<TRIPOS>SUBSTRUCTURE
     1 VHJ         1 TEMP              0 ****  ****    0 ROOT
