@<TRIPOS>MOLECULE
VHJ
   77    79     1     0     0
SMALL
abcg2


@<TRIPOS>ATOM
      1 C1          44.0510     8.5760   -19.7660 ca         1 VHJ      -0.098000
      2 C10         44.7960     0.0570   -17.2500 ca         1 VHJ      -0.102500
      3 C11         43.2260     4.7550   -13.7500 c3         1 VHJ       0.055700
      4 C12         42.4100     3.4710   -13.8920 c          1 VHJ       0.583100
      5 C13         45.1730     0.4430   -18.5270 ca         1 VHJ      -0.104500
      6 C14         42.4470     1.1000   -14.4220 c3         1 VHJ       0.041700
      7 C15         42.1690     0.4770   -13.0490 c          1 VHJ       0.587100
      8 C16         44.4660     1.4390   -19.1910 ca         1 VHJ      -0.111000
      9 C17         40.3840    -0.4560   -11.6130 c3         1 VHJ       0.104700
     10 C18         43.3840     2.0370   -18.5620 ca         1 VHJ      -0.104500
     11 C19         39.3530     0.4770   -10.9770 c3         1 VHJ      -0.069400
     12 C2          43.4590     9.3380   -18.7660 ca         1 VHJ      -0.118000
     13 C20         39.9260     1.8460   -10.6510 c5         1 VHJ      -0.159700
     14 C21         41.0410     1.8680    -9.6060 c5         1 VHJ      -0.094400
     15 C22         40.9370     3.2680    -9.0020 c5         1 VHJ       0.101000
     16 C23         43.0030     1.6410   -17.2860 ca         1 VHJ      -0.102500
     17 C24         38.9010     2.8090   -10.0750 c          1 VHJ       0.566000
     18 C25         39.8150    -1.8370   -11.9250 c3         1 VHJ       0.150600
     19 C3          42.4500     8.7960   -17.9840 ca         1 VHJ      -0.079500
     20 C30         43.5030     5.0630   -12.2680 c3         1 VHJ      -0.068700
     21 C31         44.3550     6.3210   -12.1290 c3         1 VHJ      -0.093600
     22 C32         44.1860     3.8900   -11.5720 c3         1 VHJ      -0.093600
     23 C34         43.3260     0.1560   -15.2340 c3         1 VHJ      -0.040100
     24 C4          42.0240     7.4850   -18.1870 ca         1 VHJ      -0.131300
     25 C5          42.6260     6.7270   -19.1860 ca         1 VHJ      -0.079500
     26 C6          43.6300     7.2700   -19.9770 ca         1 VHJ      -0.118000
     27 C7          40.9300     6.9100   -17.3330 c3         1 VHJ       0.230900
     28 C8          43.7030     0.6450   -16.6120 ca         1 VHJ      -0.095300
     29 C9          42.1460     5.7990   -15.6460 c          1 VHJ       0.639100
     30 N10         42.5030     5.8510   -14.3470 ns         1 VHJ      -0.478900
     31 N13         43.0940     2.3770   -14.2530 ns         1 VHJ      -0.476900
     32 N16         40.8960     0.1150   -12.8420 ns         1 VHJ      -0.496900
     33 N23         39.5260     3.5550    -9.1490 ns         1 VHJ      -0.516900
     34 O26         37.7290     2.9040   -10.4060 o          1 VHJ      -0.558000
     35 O29         42.5260     4.9540   -16.4270 o          1 VHJ      -0.545000
     36 O33         41.2100     3.4580   -13.6650 o          1 VHJ      -0.617100
     37 O38         43.0740     0.3250   -12.2430 o          1 VHJ      -0.609100
     38 O8          41.3230     6.8050   -15.9620 os         1 VHJ      -0.450100
     39 H1          44.8360     9.0000   -20.3790 ha         1 VHJ       0.112000
     40 H3          44.1910     4.6390   -14.2580 h1         1 VHJ       0.076700
     41 H4          46.0230    -0.0300   -19.0030 ha         1 VHJ       0.114000
     42 H5          41.5020     1.2540   -14.9510 h1         1 VHJ       0.074700
     43 H6          44.7610     1.7490   -20.1850 ha         1 VHJ       0.112000
     44 H7          41.2320    -0.5760   -10.9360 h1         1 VHJ       0.091700
     45 H8          42.8320     2.8230   -19.0620 ha         1 VHJ       0.114000
     46 H9          38.5010     0.5860   -11.6550 hc         1 VHJ       0.066700
     47 H10         38.9720     0.0120   -10.0650 hc         1 VHJ       0.066700
     48 H11         43.7810    10.3580   -18.5990 ha         1 VHJ       0.113000
     49 H12         40.2890     2.3170   -11.5750 hc         1 VHJ       0.094700
     50 H13         40.8420     1.1180    -8.8360 hc         1 VHJ       0.063700
     51 H14         42.0280     1.6630   -10.0170 hc         1 VHJ       0.063700
     52 H15         41.2390     3.3030    -7.9560 h1         1 VHJ       0.040700
     53 H16         42.1600     2.1370   -16.8240 ha         1 VHJ       0.116500
     54 H17         39.0020    -1.7290   -12.6560 h1         1 VHJ       0.023200
     55 H18         40.6010    -2.4350   -12.4030 h1         1 VHJ       0.023200
     56 H19         41.9860     9.4010   -17.2140 ha         1 VHJ       0.117000
     57 H20         42.5350     5.2350   -11.7800 hc         1 VHJ       0.060700
     58 H21         44.5120     6.5540   -11.0750 hc         1 VHJ       0.042200
     59 H22         45.3370     6.1750   -12.5860 hc         1 VHJ       0.042200
     60 H23         43.9000     7.1960   -12.5920 hc         1 VHJ       0.042200
     61 H24         44.4420     4.1640   -10.5490 hc         1 VHJ       0.042200
     62 H25         43.5590     3.0000   -11.5220 hc         1 VHJ       0.042200
     63 H26         45.1130     3.6150   -12.0800 hc         1 VHJ       0.042200
     64 H27         42.7930    -0.7960   -15.3260 hc         1 VHJ       0.065700
     65 H28         44.2360    -0.0660   -14.6710 hc         1 VHJ       0.065700
     66 H29         42.3090     5.7040   -19.3460 ha         1 VHJ       0.117000
     67 H30         44.0870     6.6700   -20.7530 ha         1 VHJ       0.113000
     68 H31         40.0680     7.5770   -17.3150 h1         1 VHJ       0.067200
     69 H32         40.6000     5.9440   -17.7160 h1         1 VHJ       0.067200
     70 H33         42.0120     6.4870   -13.7380 hn         1 VHJ       0.333500
     71 H34         44.0780     2.4530   -14.4540 hn         1 VHJ       0.335500
     72 H35         40.2200     0.3520   -13.5520 hn         1 VHJ       0.319500
     73 H36         38.9730    -3.2760   -10.9420 ho         1 VHJ       0.448000
     74 H37         41.5480     3.9910    -9.5530 h1         1 VHJ       0.040700
     75 H38         39.0830     4.3500    -8.7150 hn         1 VHJ       0.324500
     76 O1          39.3670    -2.4250   -10.7290 oh         1 VHJ      -0.656000
     77 H2          45.3600    -0.7140   -16.7370 ha         1 VHJ       0.116500
@<TRIPOS>BOND
     1     1    12 ar  
     2     1    26 ar  
     3     1    39 1   
     4     2     5 ar  
     5     2    28 ar  
     6     2    77 1   
     7     3     4 1   
     8     3    20 1   
     9     3    30 1   
    10     3    40 1   
    11     4    31 1   
    12     4    36 2   
    13     5     8 ar  
    14     5    41 1   
    15     6     7 1   
    16     6    23 1   
    17     6    31 1   
    18     6    42 1   
    19     7    32 1   
    20     7    37 2   
    21     8    10 ar  
    22     8    43 1   
    23     9    11 1   
    24     9    18 1   
    25     9    32 1   
    26     9    44 1   
    27    10    16 ar  
    28    10    45 1   
    29    11    13 1   
    30    11    46 1   
    31    11    47 1   
    32    12    19 ar  
    33    12    48 1   
    34    13    14 1   
    35    13    17 1   
    36    13    49 1   
    37    14    15 1   
    38    14    50 1   
    39    14    51 1   
    40    15    33 1   
    41    15    52 1   
    42    15    74 1   
    43    16    28 ar  
    44    16    53 1   
    45    17    33 1   
    46    17    34 2   
    47    18    54 1   
    48    18    55 1   
    49    18    76 1   
    50    19    24 ar  
    51    19    56 1   
    52    20    21 1   
    53    20    22 1   
    54    20    57 1   
    55    21    58 1   
    56    21    59 1   
    57    21    60 1   
    58    22    61 1   
    59    22    62 1   
    60    22    63 1   
    61    23    28 1   
    62    23    64 1   
    63    23    65 1   
    64    24    25 ar  
    65    24    27 1   
    66    25    26 ar  
    67    25    66 1   
    68    26    67 1   
    69    27    38 1   
    70    27    68 1   
    71    27    69 1   
    72    29    30 1   
    73    29    35 2   
    74    29    38 1   
    75    30    70 1   
    76    31    71 1   
    77    32    72 1   
    78    33    75 1   
    79    73    76 1   
@<TRIPOS>SUBSTRUCTURE
     1 VHJ         1 TEMP              0 ****  ****    0 ROOT
