@<TRIPOS>MOLECULE
VHK
   38    40     1     0     0
SMALL
bcc


@<TRIPOS>ATOM
      1 C2          23.9960    -9.0660    17.8840 ca         1 VHK      -0.184000
      2 N3          25.7500    -8.8730    11.4570 nb         1 VHK      -0.697000
      3 C7          22.3450   -12.5530    19.4850 cc         1 VHK      -0.390200
      4 C8          21.9360   -11.2810    20.0010 c          1 VHK       0.731700
      5 C10         23.7260   -16.3180    17.7720 c3         1 VHK      -0.112100
      6 C4          23.8540   -11.4910    17.8910 ca         1 VHK      -0.144800
      7 C14         26.8890    -9.3630    11.8510 ca         1 VHK       0.584300
      8 C5          24.7730   -11.5110    16.8370 ca         1 VHK      -0.077000
      9 C6          23.2670   -12.6930    18.4750 cd         1 VHK       0.283800
     10 N1          23.6300   -13.8970    18.0010 nu         1 VHK      -0.770000
     11 C12         24.8610    -9.3700    13.6320 ca         1 VHK      -0.333300
     12 CL          28.1810    -9.3570    10.7040 cl         1 VHK      -0.145000
     13 C13         24.7550    -8.8850    12.3540 ca         1 VHK       0.471200
     14 C15         27.1430    -9.8870    13.1200 ca         1 VHK      -0.240300
     15 C16         28.4240   -10.3810    13.4690 cg         1 VHK       0.246800
     16 N4          29.4520   -10.7900    13.7940 n1         1 VHK      -0.365800
     17 C11         26.0900    -9.8990    14.0660 ca         1 VHK       0.283600
     18 C           25.3090   -10.3450    16.3340 ca         1 VHK       0.071600
     19 O           21.1230   -11.1200    20.9070 o          1 VHK      -0.635500
     20 N           22.5340   -10.1870    19.4120 ns         1 VHK      -0.449100
     21 C3          23.4530   -10.2480    18.4050 ca         1 VHK       0.129600
     22 C1          24.9230    -9.1140    16.8710 ca         1 VHK      -0.074000
     23 H1          23.6900    -8.1120    18.2940 ha         1 VHK       0.147000
     24 H2          21.8930   -13.4180    19.9480 ha         1 VHK       0.160000
     25 H3          23.3470   -17.2540    18.1790 hc         1 VHK       0.046700
     26 H4          23.4570   -16.2760    16.7170 hc         1 VHK       0.046700
     27 H5          24.8140   -16.3370    17.8480 hc         1 VHK       0.046700
     28 H6          22.0490   -15.1690    18.4680 h1         1 VHK       0.050200
     29 H7          23.3910   -15.2320    19.6010 h1         1 VHK       0.050200
     30 H8          25.0860   -12.4420    16.3810 ha         1 VHK       0.135000
     31 H9          24.4150   -13.9610    17.3760 hn         1 VHK       0.433800
     32 H10         23.9990    -9.3520    14.2820 ha         1 VHK       0.158000
     33 H11         23.8080    -8.4820    12.0140 h4         1 VHK       0.028100
     34 H12         27.1370   -10.8770    15.5080 hn         1 VHK       0.458800
     35 H13         22.2670    -9.2780    19.7660 hn         1 VHK       0.328500
     36 H14         25.3530    -8.1970    16.4880 ha         1 VHK       0.150000
     37 N2          26.2710   -10.4010    15.2990 nu         1 VHK      -0.646000
     38 C9          23.1410   -15.1470    18.5370 c3         1 VHK       0.220800
@<TRIPOS>BOND
     1     1    21 ar  
     2     1    22 ar  
     3     1    23 1   
     4     2     7 ar  
     5     2    13 ar  
     6     3     4 1   
     7     3     9 2   
     8     3    24 1   
     9     4    19 2   
    10     4    20 1   
    11     5    25 1   
    12     5    26 1   
    13     5    27 1   
    14     5    38 1   
    15     6     8 ar  
    16     6     9 1   
    17     6    21 ar  
    18     7    12 1   
    19     7    14 ar  
    20     8    18 ar  
    21     8    30 1   
    22     9    10 1   
    23    10    31 1   
    24    10    38 1   
    25    11    13 ar  
    26    11    17 ar  
    27    11    32 1   
    28    13    33 1   
    29    14    15 1   
    30    14    17 ar  
    31    15    16 3   
    32    17    37 1   
    33    18    22 ar  
    34    18    37 1   
    35    20    21 1   
    36    20    35 1   
    37    22    36 1   
    38    28    38 1   
    39    29    38 1   
    40    34    37 1   
@<TRIPOS>SUBSTRUCTURE
     1 VHK         1 TEMP              0 ****  ****    0 ROOT
