@<TRIPOS>MOLECULE
VHK
   38    40     1     0     0
SMALL
No Charge or Current Charge


@<TRIPOS>ATOM
      1 C2          23.7360    -9.1400    17.6620 ca         1 VHK      -0.166000
      2 N3          26.3590    -8.1410    11.5270 nb         1 VHK      -0.697000
      3 C7          22.4940   -12.5990    19.7280 cc         1 VHK      -0.440200
      4 C8          22.0760   -11.2850    20.2190 c          1 VHK       0.589200
      5 C10         23.8560   -16.4890    18.1040 c3         1 VHK      -0.112100
      6 C4          23.7300   -11.5730    17.8650 ca         1 VHK      -0.144800
      7 C14         27.3200    -8.9930    11.9410 ca         1 VHK       0.519000
      8 C5          24.5420   -11.6540    16.7090 ca         1 VHK      -0.059000
      9 C6          23.2800   -12.7630    18.6130 cd         1 VHK       0.283800
     10 N1          23.6210   -14.0360    18.2300 nu         1 VHK      -0.825200
     11 C12         24.9770    -8.9160    13.3410 ca         1 VHK      -0.250000
     12 Cl          28.7930    -8.9690    10.9680 cl         1 VHK      -0.145000
     13 C13         25.2050    -8.1120    12.2220 ca         1 VHK       0.405900
     14 C15         27.1790    -9.8400    13.0510 ca         1 VHK      -0.175000
     15 C16         28.2470   -10.7150    13.4270 cg         1 VHK       0.336000
     16 N4          29.1080   -11.4390    13.7370 n1         1 VHK      -0.455000
     17 C11         25.9790    -9.7860    13.7740 ca         1 VHK       0.422000
     18 C           24.9390   -10.4900    16.0220 ca         1 VHK       0.210000
     19 O           21.3790   -11.1240    21.2060 o          1 VHK      -0.560000
     20 N           22.5330   -10.2360    19.4730 ns         1 VHK      -0.382100
     21 C3          23.3340   -10.3070    18.3270 ca         1 VHK       0.129600
     22 C1          24.5400    -9.2310    16.5130 ca         1 VHK      -0.056000
     23 H1          23.4330    -8.1640    18.0340 ha         1 VHK       0.129000
     24 H2          22.1310   -13.4270    20.3200 ha         1 VHK       0.210000
     25 H3          23.5770   -17.4340    18.5860 hc         1 VHK       0.046700
     26 H4          23.4880   -16.5110    17.0710 hc         1 VHK       0.046700
     27 H5          24.9500   -16.4230    18.0870 hc         1 VHK       0.046700
     28 H6          22.1560   -15.4130    18.8950 h1         1 VHK       0.050200
     29 H7          23.6150   -15.3260    19.9100 h1         1 VHK       0.050200
     30 H8          24.8640   -12.6180    16.3270 ha         1 VHK       0.117000
     31 H9          24.2000   -14.0990    17.3940 hn         1 VHK       0.489000
     32 H10         24.0190    -8.8680    13.8440 ha         1 VHK       0.140000
     33 H11         24.4380    -7.4270    11.8640 h4         1 VHK       0.028100
     34 H12         26.3070   -11.4680    14.8650 hn         1 VHK       0.514000
     35 H13         22.2580    -9.3150    19.7900 hn         1 VHK       0.328500
     36 H14         24.8670    -8.3210    16.0190 ha         1 VHK       0.132000
     37 N2          25.7550   -10.6080    14.8870 nu         1 VHK      -0.978000
     38 C9          23.2490   -15.3060    18.8740 c3         1 VHK       0.220800
@<TRIPOS>BOND
     1     1    21 ar  
     2     1    22 ar  
     3     1    23 1   
     4     2     7 ar  
     5     2    13 ar  
     6     3     4 1   
     7     3     9 2   
     8     3    24 1   
     9     4    19 2   
    10     4    20 1   
    11     5    25 1   
    12     5    26 1   
    13     5    27 1   
    14     5    38 1   
    15     6     8 ar  
    16     6     9 1   
    17     6    21 ar  
    18     7    12 1   
    19     7    14 ar  
    20     8    18 ar  
    21     8    30 1   
    22     9    10 1   
    23    10    31 1   
    24    10    38 1   
    25    11    13 ar  
    26    11    17 ar  
    27    11    32 1   
    28    13    33 1   
    29    14    15 1   
    30    14    17 ar  
    31    15    16 3   
    32    17    37 1   
    33    18    22 ar  
    34    18    37 1   
    35    20    21 1   
    36    20    35 1   
    37    22    36 1   
    38    28    38 1   
    39    29    38 1   
    40    34    37 1   
@<TRIPOS>SUBSTRUCTURE
     1 VHK         1 TEMP              0 ****  ****    0 ROOT
