@<TRIPOS>MOLECULE
VHM
   83    85     1     0     0
SMALL
No Charge or Current Charge


@<TRIPOS>ATOM
      1 C1          45.2180    11.0310   -18.0650 ca         1 VHM      -0.098000
      2 C10         43.0940     1.8030   -17.1040 c6         1 VHM      -0.073900
      3 C11         42.8220     5.1680   -14.8690 c3         1 VHM       0.056700
      4 C12         41.8730     3.9550   -14.6510 c          1 VHM       0.583100
      5 C13         42.7200     2.4410   -18.4730 c6         1 VHM      -0.070400
      6 C14         41.8040     1.5390   -13.8800 c3         1 VHM       0.040700
      7 C15         42.1890     0.9520   -12.4910 c          1 VHM       0.585100
      8 C16         41.6390     1.6360   -19.2480 c6         1 VHM      -0.075400
      9 C17         41.5460    -0.7770   -10.7660 c3         1 VHM       0.104700
     10 C18         41.7390     0.1210   -18.9500 c6         1 VHM      -0.070400
     11 C19         40.1700    -0.9690   -10.0750 c3         1 VHM      -0.069400
     12 C2          43.8210    10.8820   -18.0780 ca         1 VHM      -0.119000
     13 C20         39.3440     0.3360    -9.8760 c5         1 VHM      -0.157700
     14 C21         40.0530     1.4490    -9.0530 c5         1 VHM      -0.095400
     15 C22         38.8440     2.3150    -8.6040 c5         1 VHM       0.100000
     16 C23         41.5560    -0.1930   -17.4350 c6         1 VHM      -0.073900
     17 C24         38.0350     0.1300    -9.1030 c          1 VHM       0.565000
     18 C25         42.3280    -2.1040   -10.9680 c3         1 VHM       0.150600
     19 C3          43.2460     9.6600   -18.4680 ca         1 VHM      -0.080000
     20 C30         42.7700     6.1960   -13.6930 c3         1 VHM      -0.069700
     21 C31         43.6810     7.4260   -13.9370 c3         1 VHM      -0.094100
     22 C32         43.0990     5.5520   -12.3230 c3         1 VHM      -0.094100
     23 C34         42.1330     0.5310   -15.0250 c3         1 VHM      -0.080400
     24 C4          44.0650     8.5770   -18.8470 ca         1 VHM      -0.131300
     25 C5          45.4660     8.7330   -18.8330 ca         1 VHM      -0.080000
     26 C6          46.0400     9.9560   -18.4430 ca         1 VHM      -0.119000
     27 C7          43.4360     7.2500   -19.2670 c3         1 VHM       0.230900
     28 C8          41.8970     1.0100   -16.4980 c6         1 VHM      -0.058700
     29 C9          43.3700     6.1990   -17.1060 c          1 VHM       0.641100
     30 N10         42.4740     5.8090   -16.1540 ns         1 VHM      -0.480900
     31 N13         42.4610     2.8490   -14.0700 ns         1 VHM      -0.478900
     32 N16         41.3830    -0.0760   -12.0480 ns         1 VHM      -0.496900
     33 N23         37.8400     1.2770    -8.3820 ns         1 VHM      -0.516900
     34 O26         37.3820    -0.8870    -8.9320 o          1 VHM      -0.558000
     35 O29         44.5800     6.0500   -17.0340 o          1 VHM      -0.546000
     36 O33         40.6970     3.9600   -14.9950 o          1 VHM      -0.611100
     37 O38         43.1330     1.3660   -11.8280 o          1 VHM      -0.613100
     38 O8          42.6840     6.7110   -18.1650 os         1 VHM      -0.450100
     39 H1          45.6630    11.9770   -17.7630 ha         1 VHM       0.112000
     40 H3          43.4600     2.5860   -16.4330 hc         1 VHM       0.042200
     41 H4          43.8430     4.7710   -14.9420 h1         1 VHM       0.074700
     42 H5          43.6280     2.5320   -19.0850 hc         1 VHM       0.039450
     43 H6          42.3560     3.4660   -18.3170 hc         1 VHM       0.039450
     44 H7          40.7180     1.6950   -13.8600 h1         1 VHM       0.077700
     45 H8          41.7380     1.8200   -20.3260 hc         1 VHM       0.036700
     46 H9          40.6390     1.9940   -18.9660 hc         1 VHM       0.036700
     47 H10         42.1560    -0.1460   -10.1060 h1         1 VHM       0.091700
     48 H11         40.9950    -0.4310   -19.5390 hc         1 VHM       0.039450
     49 H12         42.7220    -0.2420   -19.2820 hc         1 VHM       0.039450
     50 H13         39.5800    -1.6860   -10.6600 hc         1 VHM       0.066700
     51 H14         40.3340    -1.4390    -9.0970 hc         1 VHM       0.066700
     52 H15         43.1830    11.7140   -17.7850 ha         1 VHM       0.113000
     53 H16         39.0700     0.7550   -10.8510 hc         1 VHM       0.092700
     54 H17         40.5730     1.0310    -8.1830 hc         1 VHM       0.064200
     55 H18         40.7870     2.0190    -9.6350 hc         1 VHM       0.064200
     56 H19         39.0660     2.8950    -7.6980 h1         1 VHM       0.040700
     57 H20         38.5300     3.0100    -9.3950 h1         1 VHM       0.040700
     58 H21         40.5180    -0.5030   -17.2490 hc         1 VHM       0.042200
     59 H22         42.1800    -1.0600   -17.1800 hc         1 VHM       0.042200
     60 H23         41.7360    -2.7790   -11.5990 h1         1 VHM       0.023200
     61 H24         43.2630    -1.8850   -11.5020 h1         1 VHM       0.023200
     62 H25         42.1630     9.5520   -18.4730 ha         1 VHM       0.118000
     63 H26         41.7400     6.5690   -13.6300 hc         1 VHM       0.060700
     64 H27         43.6390     8.1160   -13.0860 hc         1 VHM       0.042200
     65 H28         44.7250     7.1180   -14.0760 hc         1 VHM       0.042200
     66 H29         43.3670     7.9860   -14.8260 hc         1 VHM       0.042200
     67 H30         43.0810     6.3060   -11.5260 hc         1 VHM       0.042200
     68 H31         42.3650     4.7820   -12.0560 hc         1 VHM       0.042200
     69 H32         44.0960     5.0940   -12.3340 hc         1 VHM       0.042200
     70 H33         41.5260    -0.3650   -14.8430 hc         1 VHM       0.055700
     71 H34         43.1740     0.2020   -14.9160 hc         1 VHM       0.055700
     72 H35         46.1120     7.9050   -19.1190 ha         1 VHM       0.118000
     73 H36         47.1220    10.0690   -18.4320 ha         1 VHM       0.113000
     74 H37         42.7690     7.4350   -20.1190 h1         1 VHM       0.067700
     75 H38         44.2060     6.5430   -19.6040 h1         1 VHM       0.067700
     76 H39         41.0180     1.6690   -16.4690 hc         1 VHM       0.046700
     77 H40         41.4970     5.9500   -16.3800 hn         1 VHM       0.334500
     78 H41         43.4260     2.9420   -13.7730 hn         1 VHM       0.329500
     79 H42         40.6250    -0.3590   -12.6580 hn         1 VHM       0.318500
     80 H43         37.0670     1.3220    -7.7280 hn         1 VHM       0.324500
     81 H44         43.1230    -3.5540    -9.9090 ho         1 VHM       0.448000
     82 O27         42.6230    -2.7300    -9.7100 oh         1 VHM      -0.657000
     83 H2          43.9410     1.1170   -17.2430 hc         1 VHM       0.042200
@<TRIPOS>BOND
     1     1    12 ar  
     2     1    26 ar  
     3     1    39 1   
     4     2     5 1   
     5     2    28 1   
     6     2    40 1   
     7     2    83 1   
     8     3     4 1   
     9     3    20 1   
    10     3    30 1   
    11     3    41 1   
    12     4    31 1   
    13     4    36 2   
    14     5     8 1   
    15     5    42 1   
    16     5    43 1   
    17     6     7 1   
    18     6    23 1   
    19     6    31 1   
    20     6    44 1   
    21     7    32 1   
    22     7    37 2   
    23     8    10 1   
    24     8    45 1   
    25     8    46 1   
    26     9    11 1   
    27     9    18 1   
    28     9    32 1   
    29     9    47 1   
    30    10    16 1   
    31    10    48 1   
    32    10    49 1   
    33    11    13 1   
    34    11    50 1   
    35    11    51 1   
    36    12    19 ar  
    37    12    52 1   
    38    13    14 1   
    39    13    17 1   
    40    13    53 1   
    41    14    15 1   
    42    14    54 1   
    43    14    55 1   
    44    15    33 1   
    45    15    56 1   
    46    15    57 1   
    47    16    28 1   
    48    16    58 1   
    49    16    59 1   
    50    17    33 1   
    51    17    34 2   
    52    18    60 1   
    53    18    61 1   
    54    18    82 1   
    55    19    24 ar  
    56    19    62 1   
    57    20    21 1   
    58    20    22 1   
    59    20    63 1   
    60    21    64 1   
    61    21    65 1   
    62    21    66 1   
    63    22    67 1   
    64    22    68 1   
    65    22    69 1   
    66    23    28 1   
    67    23    70 1   
    68    23    71 1   
    69    24    25 ar  
    70    24    27 1   
    71    25    26 ar  
    72    25    72 1   
    73    26    73 1   
    74    27    38 1   
    75    27    74 1   
    76    27    75 1   
    77    28    76 1   
    78    29    30 1   
    79    29    35 2   
    80    29    38 1   
    81    30    77 1   
    82    31    78 1   
    83    32    79 1   
    84    33    80 1   
    85    81    82 1   
@<TRIPOS>SUBSTRUCTURE
     1 VHM         1 TEMP              0 ****  ****    0 ROOT
