@<TRIPOS>MOLECULE
VHM
   83    85     1     0     0
SMALL
bcc


@<TRIPOS>ATOM
      1 C1          44.0380     9.3090   -19.3480 ca         1 VHM      -0.116000
      2 C10         43.7110     2.0660   -17.3310 c6         1 VHM      -0.073900
      3 C11         42.8820     5.0980   -13.7510 c3         1 VHM       0.056700
      4 C12         42.1220     3.7840   -13.9440 c          1 VHM       0.650100
      5 C13         43.4730     2.2330   -18.8390 c6         1 VHM      -0.070400
      6 C14         42.3020     1.4160   -14.5010 c3         1 VHM       0.040700
      7 C15         42.0660     0.7800   -13.1300 c          1 VHM       0.652100
      8 C16         43.5860     0.9090   -19.6100 c6         1 VHM      -0.075400
      9 C17         40.3550    -0.2870   -11.6950 c3         1 VHM       0.104700
     10 C18         44.5260    -0.0490   -18.8900 c6         1 VHM      -0.070400
     11 C19         39.3040     0.5950   -11.0210 c3         1 VHM      -0.069400
     12 C2          43.3520     9.9790   -18.3430 ca         1 VHM      -0.137000
     13 C20         39.8390     1.9690   -10.6560 c5         1 VHM      -0.157700
     14 C21         40.9560     1.9900    -9.6110 c5         1 VHM      -0.095400
     15 C22         40.8080     3.3620    -8.9550 c5         1 VHM       0.100000
     16 C23         43.9690    -0.4250   -17.5130 c6         1 VHM      -0.073900
     17 C24         38.7870     2.8830   -10.0470 c          1 VHM       0.707500
     18 C25         39.8300    -1.6810   -12.0230 c3         1 VHM       0.127400
     19 C3          42.2880     9.3640   -17.6980 ca         1 VHM      -0.098000
     20 C30         43.1240     5.3820   -12.2590 c3         1 VHM      -0.069700
     21 C31         43.9400     6.6590   -12.0810 c3         1 VHM      -0.094100
     22 C32         43.8240     4.2140   -11.5720 c3         1 VHM      -0.094100
     23 C34         43.2330     0.5190   -15.3210 c3         1 VHM      -0.080400
     24 C4          41.9010     8.0720   -18.0470 ca         1 VHM      -0.131300
     25 C5          42.5970     7.4050   -19.0490 ca         1 VHM      -0.098000
     26 C6          43.6570     8.0220   -19.7030 ca         1 VHM      -0.137000
     27 C7          40.7480     7.4160   -17.3410 c3         1 VHM       0.207700
     28 C8          43.1870     0.7190   -16.8370 c6         1 VHM      -0.058700
     29 C9          41.8560     6.2040   -15.6480 c          1 VHM       0.757100
     30 N10         42.1280     6.1820   -14.3290 ns         1 VHM      -0.547900
     31 N13         42.8630     2.7350   -14.3230 ns         1 VHM      -0.545900
     32 N16         40.8230     0.3240   -12.9230 ns         1 VHM      -0.563900
     33 N23         39.3890     3.6140    -9.0950 ns         1 VHM      -0.583900
     34 O26         37.6130     2.9570   -10.3770 o          1 VHM      -0.633500
     35 O29         42.3120     5.4220   -16.4560 o          1 VHM      -0.595000
     36 O33         40.9180     3.7150   -13.7500 o          1 VHM      -0.611100
     37 O38         42.9780     0.6900   -12.3210 o          1 VHM      -0.613100
     38 O8          41.0240     7.2050   -15.9540 os         1 VHM      -0.426900
     39 H1          44.8650     9.7900   -19.8540 ha         1 VHM       0.130000
     40 H3          43.2370     2.8980   -16.8130 hc         1 VHM       0.042200
     41 H4          43.8560     5.0340   -14.2470 h1         1 VHM       0.074700
     42 H5          44.1890     2.9570   -19.2340 hc         1 VHM       0.039450
     43 H6          42.4830     2.6670   -19.0040 hc         1 VHM       0.039450
     44 H7          41.3530     1.5160   -15.0350 h1         1 VHM       0.077700
     45 H8          43.9260     1.0930   -20.6310 hc         1 VHM       0.036700
     46 H9          42.6020     0.4380   -19.7010 hc         1 VHM       0.036700
     47 H10         41.2200    -0.3890   -11.0380 h1         1 VHM       0.091700
     48 H11         44.6930    -0.9510   -19.4830 hc         1 VHM       0.039450
     49 H12         45.5050     0.4280   -18.7810 hc         1 VHM       0.039450
     50 H13         38.4420     0.6990   -11.6880 hc         1 VHM       0.066700
     51 H14         38.9460     0.0900   -10.1200 hc         1 VHM       0.066700
     52 H15         43.6420    10.9840   -18.0650 ha         1 VHM       0.131000
     53 H16         40.1820     2.4790   -11.5670 hc         1 VHM       0.092700
     54 H17         40.7810     1.2060    -8.8690 hc         1 VHM       0.064200
     55 H18         41.9470     1.8330   -10.0310 hc         1 VHM       0.064200
     56 H19         41.1070     3.3650    -7.9070 h1         1 VHM       0.040700
     57 H20         41.3990     4.1230    -9.4750 h1         1 VHM       0.040700
     58 H21         43.3130    -1.2960   -17.5990 hc         1 VHM       0.042200
     59 H22         44.7970    -0.7370   -16.8680 hc         1 VHM       0.042200
     60 H23         38.9930    -1.5900   -12.7290 h1         1 VHM       0.023200
     61 H24         40.6240    -2.2400   -12.5350 h1         1 VHM       0.023200
     62 H25         41.7510     9.8990   -16.9230 ha         1 VHM       0.136000
     63 H26         42.1450     5.5200   -11.7850 hc         1 VHM       0.060700
     64 H27         44.0670     6.8790   -11.0200 hc         1 VHM       0.042200
     65 H28         44.9350     6.5450   -12.5170 hc         1 VHM       0.042200
     66 H29         43.4720     7.5290   -12.5410 hc         1 VHM       0.042200
     67 H30         44.0640     4.4790   -10.5430 hc         1 VHM       0.042200
     68 H31         43.2120     3.3140   -11.5410 hc         1 VHM       0.042200
     69 H32         44.7600     3.9610   -12.0730 hc         1 VHM       0.042200
     70 H33         42.9530    -0.5200   -15.1200 hc         1 VHM       0.055700
     71 H34         44.2600     0.6280   -14.9580 hc         1 VHM       0.055700
     72 H35         42.3100     6.3960   -19.3180 ha         1 VHM       0.136000
     73 H36         44.1880     7.4930   -20.4840 ha         1 VHM       0.131000
     74 H37         39.8750     8.0680   -17.3450 h1         1 VHM       0.067700
     75 H38         40.4710     6.4800   -17.8280 h1         1 VHM       0.067700
     76 H39         42.1350     0.6430   -17.1410 hc         1 VHM       0.046700
     77 H40         41.5890     6.7720   -13.7150 hn         1 VHM       0.334500
     78 H41         43.8580     2.8470   -14.4310 hn         1 VHM       0.329500
     79 H42         40.1310     0.5100   -13.6330 hn         1 VHM       0.318500
     80 H43         38.9220     4.3790    -8.6330 hn         1 VHM       0.324500
     81 H44         39.0510    -3.1630   -11.0510 ho         1 VHM       0.409000
     82 O27         39.4370    -2.3110   -10.8280 oh         1 VHM      -0.594800
     83 H2          44.7800     2.1320   -17.1020 hc         1 VHM       0.042200
@<TRIPOS>BOND
     1     1    12 ar  
     2     1    26 ar  
     3     1    39 1   
     4     2     5 1   
     5     2    28 1   
     6     2    40 1   
     7     2    83 1   
     8     3     4 1   
     9     3    20 1   
    10     3    30 1   
    11     3    41 1   
    12     4    31 1   
    13     4    36 2   
    14     5     8 1   
    15     5    42 1   
    16     5    43 1   
    17     6     7 1   
    18     6    23 1   
    19     6    31 1   
    20     6    44 1   
    21     7    32 1   
    22     7    37 2   
    23     8    10 1   
    24     8    45 1   
    25     8    46 1   
    26     9    11 1   
    27     9    18 1   
    28     9    32 1   
    29     9    47 1   
    30    10    16 1   
    31    10    48 1   
    32    10    49 1   
    33    11    13 1   
    34    11    50 1   
    35    11    51 1   
    36    12    19 ar  
    37    12    52 1   
    38    13    14 1   
    39    13    17 1   
    40    13    53 1   
    41    14    15 1   
    42    14    54 1   
    43    14    55 1   
    44    15    33 1   
    45    15    56 1   
    46    15    57 1   
    47    16    28 1   
    48    16    58 1   
    49    16    59 1   
    50    17    33 1   
    51    17    34 2   
    52    18    60 1   
    53    18    61 1   
    54    18    82 1   
    55    19    24 ar  
    56    19    62 1   
    57    20    21 1   
    58    20    22 1   
    59    20    63 1   
    60    21    64 1   
    61    21    65 1   
    62    21    66 1   
    63    22    67 1   
    64    22    68 1   
    65    22    69 1   
    66    23    28 1   
    67    23    70 1   
    68    23    71 1   
    69    24    25 ar  
    70    24    27 1   
    71    25    26 ar  
    72    25    72 1   
    73    26    73 1   
    74    27    38 1   
    75    27    74 1   
    76    27    75 1   
    77    28    76 1   
    78    29    30 1   
    79    29    35 2   
    80    29    38 1   
    81    30    77 1   
    82    31    78 1   
    83    32    79 1   
    84    33    80 1   
    85    81    82 1   
@<TRIPOS>SUBSTRUCTURE
     1 VHM         1 TEMP              0 ****  ****    0 ROOT
