@<TRIPOS>MOLECULE
VHN
   45    47     1     0     0
SMALL
abcg2


@<TRIPOS>ATOM
      1 CL          95.6110    -9.1470    10.9760 cl         1 VHN      -0.144000
      2 C           94.2790    -9.2020    12.0750 ca         1 VHN       0.518000
      3 C4          94.4990    -9.7410    13.3450 ca         1 VHN      -0.174000
      4 C5          95.7780   -10.2150    13.7280 cg         1 VHN       0.335000
      5 N1          96.8030   -10.6090    14.0810 n1         1 VHN      -0.453000
      6 C3          93.4150    -9.7920    14.2540 ca         1 VHN       0.420000
      7 C2          92.1900    -9.2860    13.7830 ca         1 VHN      -0.251000
      8 C1          92.1180    -8.7830    12.5090 ca         1 VHN       0.405900
      9 N           93.1440    -8.7310    11.6490 nb         1 VHN      -0.696000
     10 N2          93.5760   -10.3140    15.4830 nu         1 VHN      -0.973000
     11 C6          92.6130   -10.3150    16.5130 ca         1 VHN       0.221000
     12 C11         92.0460    -9.1380    16.9560 ca         1 VHN      -0.063000
     13 C10         91.1040    -9.1340    17.9900 ca         1 VHN      -0.134800
     14 C12         90.4490    -7.9260    18.4740 cc         1 VHN       0.280800
     15 N4          90.7120    -6.7580    17.8460 nu         1 VHN      -0.800200
     16 C15         90.0870    -5.5130    18.2030 c3         1 VHN       0.147500
     17 C18         90.7670    -4.3690    17.4580 c3         1 VHN      -0.102100
     18 C16         88.5890    -5.5120    17.8640 c          1 VHN       0.569100
     19 N5          87.8300    -4.7750    18.6830 ns         1 VHN      -0.502900
     20 C17         86.4150    -4.5810    18.4690 c3         1 VHN       0.093300
     21 O1          88.1510    -6.1040    16.8900 o          1 VHN      -0.592100
     22 C13         89.6270    -8.0140    19.5670 cd         1 VHN      -0.423200
     23 C14         89.3510    -9.2520    20.2400 c          1 VHN       0.588200
     24 O           88.6290    -9.3640    21.2270 o          1 VHN      -0.560000
     25 N3          89.9450   -10.3650    19.6900 ns         1 VHN      -0.380100
     26 C9          90.8020   -10.3470    18.6270 ca         1 VHN       0.122600
     27 C8          91.3900   -11.5360    18.1810 ca         1 VHN      -0.158000
     28 C7          92.2720   -11.5230    17.1280 ca         1 VHN      -0.065000
     29 H1          91.3030    -9.3000    14.3980 ha         1 VHN       0.141000
     30 H2          91.1750    -8.3990    12.1410 h4         1 VHN       0.030100
     31 H3          94.4420   -10.7930    15.6870 hn         1 VHN       0.514000
     32 H4          92.3690    -8.2120    16.4980 ha         1 VHN       0.124000
     33 H5          91.0710    -6.8020    16.9060 hn         1 VHN       0.493000
     34 H6          90.2210    -5.3520    19.2770 h1         1 VHN       0.071700
     35 H7          90.3230    -3.4150    17.7350 hc         1 VHN       0.054033
     36 H8          91.8280    -4.3350    17.7040 hc         1 VHN       0.054033
     37 H9          90.6660    -4.4890    16.3780 hc         1 VHN       0.054033
     38 H10         88.2570    -4.3290    19.4790 hn         1 VHN       0.316500
     39 H11         86.0310    -3.9440    19.2600 h1         1 VHN       0.043700
     40 H12         86.2160    -4.0970    17.5120 h1         1 VHN       0.043700
     41 H13         85.8720    -5.5260    18.4960 h1         1 VHN       0.043700
     42 H14         89.1240    -7.1460    19.9690 ha         1 VHN       0.205000
     43 H15         89.7550   -11.2520    20.1370 hn         1 VHN       0.329500
     44 H16         91.1430   -12.4700    18.6700 ha         1 VHN       0.128000
     45 H17         92.7130   -12.4480    16.7800 ha         1 VHN       0.128000
@<TRIPOS>BOND
     1     1     2 1   
     2     2     3 ar  
     3     2     9 ar  
     4     3     4 1   
     5     3     6 ar  
     6     4     5 3   
     7     6     7 ar  
     8     6    10 1   
     9     7     8 ar  
    10     7    29 1   
    11     8     9 ar  
    12     8    30 1   
    13    10    11 1   
    14    10    31 1   
    15    11    12 ar  
    16    11    28 ar  
    17    12    13 ar  
    18    12    32 1   
    19    13    14 1   
    20    13    26 ar  
    21    14    15 1   
    22    14    22 2   
    23    15    16 1   
    24    15    33 1   
    25    16    17 1   
    26    16    18 1   
    27    16    34 1   
    28    17    35 1   
    29    17    36 1   
    30    17    37 1   
    31    18    19 1   
    32    18    21 2   
    33    19    20 1   
    34    19    38 1   
    35    20    39 1   
    36    20    40 1   
    37    20    41 1   
    38    22    23 1   
    39    22    42 1   
    40    23    24 2   
    41    23    25 1   
    42    25    26 1   
    43    25    43 1   
    44    26    27 ar  
    45    27    28 ar  
    46    27    44 1   
    47    28    45 1   
@<TRIPOS>SUBSTRUCTURE
     1 VHN         1 TEMP              0 ****  ****    0 ROOT
