@<TRIPOS>MOLECULE
VHN
   45    47     1     0     0
SMALL
No Charge or Current Charge


@<TRIPOS>ATOM
      1 Cl          95.9030    -8.8770    11.1650 cl         1 VHN      -0.144000
      2 C           94.4740    -9.0060    12.1930 ca         1 VHN       0.518000
      3 C4          94.4700    -9.7820    13.3620 ca         1 VHN      -0.174000
      4 C5          95.6460   -10.4950    13.7550 cg         1 VHN       0.335000
      5 N1          96.5970   -11.0880    14.0800 n1         1 VHN      -0.453000
      6 C3          93.2950    -9.8190    14.1260 ca         1 VHN       0.420000
      7 C2          92.1820    -9.1060    13.6740 ca         1 VHN      -0.251000
      8 C1          92.2770    -8.3640    12.4960 ca         1 VHN       0.405900
      9 N           93.4040    -8.3060    11.7610 nb         1 VHN      -0.696000
     10 N2          93.2040   -10.5800    15.2990 nu         1 VHN      -0.973000
     11 C6          92.4130   -10.4790    16.4520 ca         1 VHN       0.221000
     12 C11         91.8920    -9.2400    16.8810 ca         1 VHN      -0.063000
     13 C10         91.1020    -9.1450    18.0540 ca         1 VHN      -0.134800
     14 C12         90.5380    -7.8610    18.5160 cc         1 VHN       0.280800
     15 N4          90.7430    -6.6950    17.8130 nu         1 VHN      -0.800200
     16 C15         90.1010    -5.3710    18.0500 c3         1 VHN       0.147500
     17 C18         90.8970    -4.2830    17.3000 c3         1 VHN      -0.102100
     18 C16         88.5860    -5.3520    17.6410 c          1 VHN       0.569100
     19 N5          87.7010    -5.0180    18.6480 ns         1 VHN      -0.502900
     20 C17         86.2470    -4.9560    18.4800 c3         1 VHN       0.093300
     21 O1          88.1930    -5.6200    16.5100 o          1 VHN      -0.592100
     22 C13         89.8000    -7.8940    19.6790 cd         1 VHN      -0.423200
     23 C14         89.5350    -9.1020    20.4690 c          1 VHN       0.588200
     24 O           88.8770    -9.1080    21.4950 o          1 VHN      -0.560000
     25 N3          90.0930   -10.2310    19.9530 ns         1 VHN      -0.380100
     26 C9          90.8630   -10.3180    18.7920 ca         1 VHN       0.122600
     27 C8          91.3910   -11.5520    18.3850 ca         1 VHN      -0.158000
     28 C7          92.1690   -11.6310    17.2190 ca         1 VHN      -0.065000
     29 H1          91.2400    -9.1370    14.2100 ha         1 VHN       0.141000
     30 H2          91.4220    -7.8020    12.1230 h4         1 VHN       0.030100
     31 H3          93.8490   -11.3740    15.3120 hn         1 VHN       0.514000
     32 H4          92.1240    -8.3540    16.3020 ha         1 VHN       0.124000
     33 H5          91.2360    -6.8090    16.9290 hn         1 VHN       0.493000
     34 H6          90.1560    -5.1290    19.1200 h1         1 VHN       0.071700
     35 H7          90.4670    -3.2940    17.4940 hc         1 VHN       0.054033
     36 H8          91.9420    -4.2690    17.6330 hc         1 VHN       0.054033
     37 H9          90.8790    -4.4570    16.2180 hc         1 VHN       0.054033
     38 H10         88.0910    -4.8000    19.5580 hn         1 VHN       0.316500
     39 H11         85.7790    -4.6690    19.4300 h1         1 VHN       0.043700
     40 H12         85.9940    -4.2130    17.7130 h1         1 VHN       0.043700
     41 H13         85.8680    -5.9400    18.1730 h1         1 VHN       0.043700
     42 H14         89.3540    -7.0070    20.1020 ha         1 VHN       0.205000
     43 H15         89.9320   -11.0840    20.4710 hn         1 VHN       0.329500
     44 H16         91.2020   -12.4500    18.9700 ha         1 VHN       0.128000
     45 H17         92.5750   -12.5890    16.9070 ha         1 VHN       0.128000
@<TRIPOS>BOND
     1     1     2 1   
     2     2     3 ar  
     3     2     9 ar  
     4     3     4 1   
     5     3     6 ar  
     6     4     5 3   
     7     6     7 ar  
     8     6    10 1   
     9     7     8 ar  
    10     7    29 1   
    11     8     9 ar  
    12     8    30 1   
    13    10    11 1   
    14    10    31 1   
    15    11    12 ar  
    16    11    28 ar  
    17    12    13 ar  
    18    12    32 1   
    19    13    14 1   
    20    13    26 ar  
    21    14    15 1   
    22    14    22 2   
    23    15    16 1   
    24    15    33 1   
    25    16    17 1   
    26    16    18 1   
    27    16    34 1   
    28    17    35 1   
    29    17    36 1   
    30    17    37 1   
    31    18    19 1   
    32    18    21 2   
    33    19    20 1   
    34    19    38 1   
    35    20    39 1   
    36    20    40 1   
    37    20    41 1   
    38    22    23 1   
    39    22    42 1   
    40    23    24 2   
    41    23    25 1   
    42    25    26 1   
    43    25    43 1   
    44    26    27 ar  
    45    27    28 ar  
    46    27    44 1   
    47    28    45 1   
@<TRIPOS>SUBSTRUCTURE
     1 VHN         1 TEMP              0 ****  ****    0 ROOT
