@<TRIPOS>MOLECULE
VHO
   27    28     1     0     0
SMALL
No Charge or Current Charge


@<TRIPOS>ATOM
      1 C7          -4.4180    16.6650   -33.4310 c          1 VHO       0.601100
      2 C8          -6.5470    17.6700   -32.4030 cx         1 VHO       0.044700
      3 C9          -6.6090    18.9790   -33.1560 cx         1 VHO      -0.135900
      4 O1          -3.8350    17.7190   -33.6580 o          1 VHO      -0.572100
      5 C1          -2.2580    12.9560   -34.5830 ca         1 VHO      -0.214000
      6 C5          -0.2130    12.0770   -35.5660 ca         1 VHO      -0.182000
      7 C6          -3.8110    15.2810   -33.7680 c3         1 VHO       0.078600
      8 C4           0.2620    13.3850   -35.7340 ca         1 VHO       0.200000
      9 C3          -0.5140    14.4800   -35.3290 ca         1 VHO      -0.177000
     10 C2          -1.7760    14.2730   -34.7530 ca         1 VHO       0.161100
     11 N           -5.6800    16.5920   -32.8490 ns         1 VHO      -0.476900
     12 C10         -5.9720    18.9230   -31.7840 cx         1 VHO      -0.135900
     13 O           -2.5000    15.3840   -34.3720 os         1 VHO      -0.317100
     14 C           -1.4760    11.8600   -34.9900 ca         1 VHO      -0.049000
     15 H1          -7.4850    17.3010   -31.9840 h1         1 VHO       0.079700
     16 H2          -5.9620    19.1200   -34.0180 hc         1 VHO       0.084450
     17 H3          -7.5800    19.4600   -33.2430 hc         1 VHO       0.084450
     18 H4          -3.2300    12.7630   -34.1400 ha         1 VHO       0.117000
     19 H5           0.3960    11.2340   -35.8830 ha         1 VHO       0.135000
     20 H6          -4.5080    14.7720   -34.4460 h1         1 VHO       0.051200
     21 H7          -3.7610    14.7070   -32.8350 h1         1 VHO       0.051200
     22 H8          -0.1370    15.4900   -35.4630 ha         1 VHO       0.151000
     23 H9          -6.0270    15.6460   -32.7260 hn         1 VHO       0.313500
     24 H10         -4.8940    19.0270   -31.7120 hc         1 VHO       0.084450
     25 H11         -6.5190    19.3670   -30.9560 hc         1 VHO       0.084450
     26 H12         -1.8480    10.8450   -34.8580 ha         1 VHO       0.116000
     27 F            1.4770    13.5920   -36.2880 f          1 VHO      -0.180000
@<TRIPOS>BOND
     1     1     4 2   
     2     1     7 1   
     3     1    11 1   
     4     2     3 1   
     5     2    11 1   
     6     2    12 1   
     7     2    15 1   
     8     3    12 1   
     9     3    16 1   
    10     3    17 1   
    11     5    10 ar  
    12     5    14 ar  
    13     5    18 1   
    14     6     8 ar  
    15     6    14 ar  
    16     6    19 1   
    17     7    13 1   
    18     7    20 1   
    19     7    21 1   
    20     8     9 ar  
    21     8    27 1   
    22     9    10 ar  
    23     9    22 1   
    24    10    13 1   
    25    11    23 1   
    26    12    24 1   
    27    12    25 1   
    28    14    26 1   
@<TRIPOS>SUBSTRUCTURE
     1 VHO         1 TEMP              0 ****  ****    0 ROOT
