@<TRIPOS>MOLECULE
VHO
   27    28     1     0     0
SMALL
abcg2


@<TRIPOS>ATOM
      1 C7          -4.4970    16.5870   -33.5930 c          1 VHO       0.601100
      2 C8          -6.2600    17.6740   -32.1960 cx         1 VHO       0.044700
      3 C9          -6.7650    18.7520   -33.1110 cx         1 VHO      -0.135900
      4 O1          -4.1280    17.5920   -34.1960 o          1 VHO      -0.572100
      5 C1          -2.4090    13.0050   -34.8150 ca         1 VHO      -0.214000
      6 C5          -0.2500    12.1640   -35.5410 ca         1 VHO      -0.182000
      7 C6          -3.9330    15.2090   -33.9240 c3         1 VHO       0.078600
      8 C4           0.2560    13.4410   -35.3590 ca         1 VHO       0.200000
      9 C3          -0.5080    14.5020   -34.9220 ca         1 VHO      -0.177000
     10 C2          -1.8600    14.2770   -34.6480 ca         1 VHO       0.161100
     11 N           -5.4450    16.5710   -32.6420 ns         1 VHO      -0.476900
     12 C10         -5.7460    19.0750   -32.0400 cx         1 VHO      -0.135900
     13 O           -2.5550    15.3670   -34.2240 os         1 VHO      -0.317100
     14 C           -1.5950    11.9650   -35.2610 ca         1 VHO      -0.049000
     15 H1          -6.9480    17.3300   -31.4370 h1         1 VHO       0.079700
     16 H2          -6.4130    18.7490   -34.1310 hc         1 VHO       0.084450
     17 H3          -7.7880    19.0750   -32.9730 hc         1 VHO       0.084450
     18 H4          -3.4500    12.8130   -34.6040 ha         1 VHO       0.117000
     19 H5           0.3900    11.3640   -35.8860 ha         1 VHO       0.135000
     20 H6          -4.4760    14.8270   -34.7950 h1         1 VHO       0.051200
     21 H7          -4.0680    14.5090   -33.0960 h1         1 VHO       0.051200
     22 H8          -0.0750    15.4840   -34.7920 ha         1 VHO       0.151000
     23 H9          -5.6390    15.6890   -32.1950 hn         1 VHO       0.313500
     24 H10         -4.7390    19.2810   -32.3720 hc         1 VHO       0.084450
     25 H11         -6.0670    19.6210   -31.1630 hc         1 VHO       0.084450
     26 H12         -2.0250    10.9800   -35.3880 ha         1 VHO       0.116000
     27 F            1.5690    13.6650   -35.6240 f          1 VHO      -0.180000
@<TRIPOS>BOND
     1     1     4 2   
     2     1     7 1   
     3     1    11 1   
     4     2     3 1   
     5     2    11 1   
     6     2    12 1   
     7     2    15 1   
     8     3    12 1   
     9     3    16 1   
    10     3    17 1   
    11     5    10 ar  
    12     5    14 ar  
    13     5    18 1   
    14     6     8 ar  
    15     6    14 ar  
    16     6    19 1   
    17     7    13 1   
    18     7    20 1   
    19     7    21 1   
    20     8     9 ar  
    21     8    27 1   
    22     9    10 ar  
    23     9    22 1   
    24    10    13 1   
    25    11    23 1   
    26    12    24 1   
    27    12    25 1   
    28    14    26 1   
@<TRIPOS>SUBSTRUCTURE
     1 VHO         1 TEMP              0 ****  ****    0 ROOT
