@<TRIPOS>MOLECULE
VHP
   86    87     1     0     0
SMALL
No Charge or Current Charge


@<TRIPOS>ATOM
      1 C1          44.6310    10.9090   -17.0670 ca         1 VHP      -0.100000
      2 C10         43.3320     7.5410   -12.2780 c3         1 VHP      -0.106100
      3 C11         42.4930     4.4070   -15.4300 c3         1 VHP       0.048700
      4 C12         41.4710     3.2520   -15.2730 c          1 VHP       0.592100
      5 C13         42.1910     8.1320   -14.4970 c3         1 VHP      -0.106100
      6 C14         41.2410     0.7890   -14.6810 c3         1 VHP       0.035700
      7 C15         41.7930     0.0970   -13.4030 c          1 VHP       0.585100
      8 C16         44.7060     8.3370   -14.2610 c3         1 VHP      -0.106100
      9 C17         41.1880    -1.5020   -11.5410 c3         1 VHP       0.104700
     10 C19         40.2440    -0.9910   -10.4180 c3         1 VHP      -0.078400
     11 C2          43.2300    10.8160   -17.1090 ca         1 VHP      -0.121000
     12 C20         40.2350     0.5520   -10.1850 c5         1 VHP      -0.154700
     13 C21         41.5820     1.1620    -9.6960 c5         1 VHP      -0.090400
     14 C22         41.4830     0.9580    -8.1590 c5         1 VHP       0.098000
     15 C24         39.2720     0.9030    -9.0470 c          1 VHP       0.562000
     16 C27         41.1060    -3.0370   -11.7630 c3         1 VHP       0.151600
     17 C3          42.6150     9.7490   -17.7880 ca         1 VHP      -0.080000
     18 C30         42.7080     5.1520   -14.0780 c3         1 VHP       0.165300
     19 C34         41.3020    -0.1710   -15.9020 c3         1 VHP      -0.083400
     20 C35         40.6040     0.3320   -17.1970 c3         1 VHP      -0.059700
     21 C36         40.9380    -0.5860   -18.3950 c3         1 VHP      -0.090600
     22 C37         39.0710     0.4700   -17.0320 c3         1 VHP      -0.090600
     23 C4          43.3970     8.7640   -18.4230 ca         1 VHP      -0.130300
     24 C5          44.8030     8.8640   -18.3790 ca         1 VHP      -0.080000
     25 C6          45.4170     9.9340   -17.7040 ca         1 VHP      -0.121000
     26 C7          42.7230     7.6020   -19.1490 c3         1 VHP       0.231900
     27 C9          42.8370     5.9590   -17.3960 c          1 VHP       0.649100
     28 N10         42.0270     5.3260   -16.4970 ns         1 VHP      -0.479900
     29 N13         42.0120     2.0260   -14.9390 ns         1 VHP      -0.477900
     30 N16         40.9230    -0.7870   -12.7980 ns         1 VHP      -0.497900
     31 N23         40.0510     1.1590    -7.9510 ns         1 VHP      -0.514900
     32 O26         38.0730     1.1260    -9.0900 o          1 VHP      -0.557000
     33 O29         44.0350     5.7620   -17.5240 o          1 VHP      -0.538000
     34 O32         43.6900     6.1930   -14.3100 os         1 VHP      -0.472000
     35 O33         40.2670     3.4070   -15.4350 o          1 VHP      -0.614100
     36 O38         42.9070     0.3280   -12.9490 o          1 VHP      -0.608100
     37 O8          42.0660     6.7590   -18.1840 os         1 VHP      -0.458100
     38 H1          45.1060    11.7340   -16.5410 ha         1 VHP       0.111000
     39 H2          43.2680     8.5690   -11.9010 hc         1 VHP       0.042367
     40 H3          42.4300     7.0130   -11.9470 hc         1 VHP       0.042367
     41 H4          44.2070     7.0700   -11.8160 hc         1 VHP       0.042367
     42 H5          43.4510     3.9690   -15.7360 h1         1 VHP       0.096700
     43 H6          42.1010     9.2010   -14.2690 hc         1 VHP       0.042367
     44 H7          42.2450     8.0290   -15.5850 hc         1 VHP       0.042367
     45 H8          41.2730     7.6470   -14.1470 hc         1 VHP       0.042367
     46 H9          40.1970     1.0490   -14.4660 h1         1 VHP       0.080700
     47 H10         44.6220     9.3900   -13.9690 hc         1 VHP       0.042367
     48 H11         45.6120     7.9260   -13.8000 hc         1 VHP       0.042367
     49 H12         44.8270     8.2930   -15.3490 hc         1 VHP       0.042367
     50 H13         42.2200    -1.2910   -11.2300 h1         1 VHP       0.092700
     51 H17         39.2240    -1.3200   -10.6540 hc         1 VHP       0.062700
     52 H18         40.5090    -1.4990    -9.4820 hc         1 VHP       0.062700
     53 H19         42.6200    11.5690   -16.6160 ha         1 VHP       0.113500
     54 H20         39.8570     1.0160   -11.1020 hc         1 VHP       0.099700
     55 H21         42.4720     0.6950   -10.1290 hc         1 VHP       0.062700
     56 H22         41.6310     2.2300    -9.9370 hc         1 VHP       0.062700
     57 H23         41.7900    -0.0550    -7.8660 h1         1 VHP       0.042700
     58 H24         42.1000     1.6810    -7.6080 h1         1 VHP       0.042700
     59 H25         40.0780    -3.3060   -12.0410 h1         1 VHP       0.023700
     60 H26         41.7580    -3.3060   -12.6040 h1         1 VHP       0.023700
     61 H27         41.5290     9.6820   -17.8130 ha         1 VHP       0.120500
     62 H28         41.7450     5.5640   -13.7530 h1         1 VHP       0.049700
     63 H29         40.8580    -1.1340   -15.6230 hc         1 VHP       0.057200
     64 H30         42.3580    -0.3770   -16.1210 hc         1 VHP       0.057200
     65 H31         41.0030     1.3250   -17.4390 hc         1 VHP       0.051700
     66 H32         42.0220    -0.6380   -18.5550 hc         1 VHP       0.036033
     67 H33         40.5670    -1.6040   -18.2240 hc         1 VHP       0.036033
     68 H34         40.4810    -0.2050   -19.3160 hc         1 VHP       0.036033
     69 H35         38.8160     1.1930   -16.2500 hc         1 VHP       0.036033
     70 H36         38.6130     0.8190   -17.9650 hc         1 VHP       0.036033
     71 H37         38.6190    -0.4940   -16.7690 hc         1 VHP       0.036033
     72 H38         45.4210     8.1100   -18.8620 ha         1 VHP       0.120500
     73 H39         46.5010    10.0040   -17.6710 ha         1 VHP       0.113500
     74 H40         41.9850     8.0110   -19.8510 h1         1 VHP       0.065700
     75 H41         43.4540     7.0350   -19.7410 h1         1 VHP       0.065700
     76 H42         41.0420     5.5510   -16.5530 hn         1 VHP       0.336500
     77 H43         43.0160     1.9910   -14.7950 hn         1 VHP       0.331500
     78 H44         40.0220    -0.9180   -13.2430 hn         1 VHP       0.318500
     79 H45         39.6090     1.4820    -7.0970 hn         1 VHP       0.323500
     80 H46         41.4390    -4.7130   -10.7960 ho         1 VHP       0.449000
     81 O28         41.5080    -3.7540   -10.5870 oh         1 VHP      -0.658000
     82 C18         43.2550     4.2430   -12.9490 c3         1 VHP      -0.131100
     83 C8          43.4560     7.5430   -13.8220 c3         1 VHP       0.199000
     84 H14         43.4880     4.8150   -12.0460 hc         1 VHP       0.048700
     85 H15         42.5160     3.4850   -12.6640 hc         1 VHP       0.048700
     86 H16         44.1700     3.7310   -13.2710 hc         1 VHP       0.048700
@<TRIPOS>BOND
     1     1    11 ar  
     2     1    25 ar  
     3     1    38 1   
     4     2    39 1   
     5     2    40 1   
     6     2    41 1   
     7     2    83 1   
     8     3     4 1   
     9     3    18 1   
    10     3    28 1   
    11     3    42 1   
    12     4    29 1   
    13     4    35 2   
    14     5    43 1   
    15     5    44 1   
    16     5    45 1   
    17     5    83 1   
    18     6     7 1   
    19     6    19 1   
    20     6    29 1   
    21     6    46 1   
    22     7    30 1   
    23     7    36 2   
    24     8    47 1   
    25     8    48 1   
    26     8    49 1   
    27     8    83 1   
    28     9    10 1   
    29     9    16 1   
    30     9    30 1   
    31     9    50 1   
    32    10    12 1   
    33    10    51 1   
    34    10    52 1   
    35    11    17 ar  
    36    11    53 1   
    37    12    13 1   
    38    12    15 1   
    39    12    54 1   
    40    13    14 1   
    41    13    55 1   
    42    13    56 1   
    43    14    31 1   
    44    14    57 1   
    45    14    58 1   
    46    15    31 1   
    47    15    32 2   
    48    16    59 1   
    49    16    60 1   
    50    16    81 1   
    51    17    23 ar  
    52    17    61 1   
    53    18    34 1   
    54    18    62 1   
    55    18    82 1   
    56    19    20 1   
    57    19    63 1   
    58    19    64 1   
    59    20    21 1   
    60    20    22 1   
    61    20    65 1   
    62    21    66 1   
    63    21    67 1   
    64    21    68 1   
    65    22    69 1   
    66    22    70 1   
    67    22    71 1   
    68    23    24 ar  
    69    23    26 1   
    70    24    25 ar  
    71    24    72 1   
    72    25    73 1   
    73    26    37 1   
    74    26    74 1   
    75    26    75 1   
    76    27    28 1   
    77    27    33 2   
    78    27    37 1   
    79    28    76 1   
    80    29    77 1   
    81    30    78 1   
    82    31    79 1   
    83    34    83 1   
    84    80    81 1   
    85    82    84 1   
    86    82    85 1   
    87    82    86 1   
@<TRIPOS>SUBSTRUCTURE
     1 VHP         1 TEMP              0 ****  ****    0 ROOT
