@<TRIPOS>MOLECULE
VHP
   86    87     1     0     0
SMALL
bcc


@<TRIPOS>ATOM
      1 C1          44.2470    10.8170   -16.7900 ca         1 VHP      -0.118000
      2 C10         45.1880     6.8570   -12.6850 c3         1 VHP      -0.106100
      3 C11         42.4980     4.0850   -15.2970 c3         1 VHP       0.048700
      4 C12         41.6180     2.8740   -15.0120 c          1 VHP       0.659100
      5 C13         42.7320     6.8230   -12.2040 c3         1 VHP      -0.106100
      6 C14         41.3680     0.4620   -15.1800 c3         1 VHP       0.035700
      7 C15         41.6390     0.0760   -13.7250 c          1 VHP       0.652100
      8 C16         43.6010     8.1780   -14.0980 c3         1 VHP      -0.106100
      9 C17         40.5900    -0.7550   -11.6550 c3         1 VHP       0.104700
     10 C19         39.7560     0.2010   -10.8020 c3         1 VHP      -0.078400
     11 C2          42.8870    10.8380   -16.5090 ca         1 VHP      -0.139000
     12 C20         40.1310     1.6760   -10.9800 c5         1 VHP      -0.154700
     13 C21         41.5350     2.0550   -10.5010 c5         1 VHP      -0.090400
     14 C22         41.3330     2.5010    -9.0510 c5         1 VHP       0.098000
     15 C24         39.2250     2.5130   -10.0870 c          1 VHP       0.704500
     16 C27         40.1130    -2.1990   -11.5490 c3         1 VHP       0.128400
     17 C3          42.0610     9.8400   -17.0060 ca         1 VHP      -0.098000
     18 C30         43.0720     4.6190   -13.9680 c3         1 VHP       0.142100
     19 C34         41.8470    -0.6560   -16.1030 c3         1 VHP      -0.083400
     20 C35         41.5620    -0.4290   -17.5900 c3         1 VHP      -0.059700
     21 C36         42.1220    -1.6000   -18.3930 c3         1 VHP      -0.090600
     22 C37         40.0740    -0.2410   -17.8690 c3         1 VHP      -0.090600
     23 C4          42.5820     8.8090   -17.7840 ca         1 VHP      -0.130300
     24 C5          43.9450     8.7960   -18.0590 ca         1 VHP      -0.098000
     25 C6          44.7740     9.7970   -17.5700 ca         1 VHP      -0.139000
     26 C7          41.6750     7.7280   -18.2970 c3         1 VHP       0.208700
     27 C9          42.1750     5.8410   -16.9590 c          1 VHP       0.765100
     28 N10         41.6890     5.0700   -15.9640 ns         1 VHP      -0.546900
     29 N13         42.0470     1.6980   -15.4880 ns         1 VHP      -0.544900
     30 N16         40.5670    -0.3630   -13.0490 ns         1 VHP      -0.564900
     31 N23         39.9640     2.9690    -9.0630 ns         1 VHP      -0.581900
     32 O26         38.0310     2.7070   -10.2540 o          1 VHP      -0.632500
     33 O29         43.2210     5.6600   -17.5430 o          1 VHP      -0.587000
     34 O32         43.6780     5.8430   -14.2750 os         1 VHP      -0.425600
     35 O33         40.5770     3.0000   -14.3820 o          1 VHP      -0.614100
     36 O38         42.7670     0.1380   -13.2610 o          1 VHP      -0.608100
     37 O8          41.3040     6.8110   -17.2630 os         1 VHP      -0.434900
     38 H1          44.8920    11.5970   -16.4060 ha         1 VHP       0.129000
     39 H2          45.3340     7.7100   -12.0200 hc         1 VHP       0.042367
     40 H3          45.3540     5.9540   -12.0970 hc         1 VHP       0.042367
     41 H4          45.9560     6.9030   -13.4600 hc         1 VHP       0.042367
     42 H5          43.3200     3.8150   -15.9630 h1         1 VHP       0.096700
     43 H6          42.8400     7.6980   -11.5620 hc         1 VHP       0.042367
     44 H7          41.7190     6.8410   -12.6100 hc         1 VHP       0.042367
     45 H8          42.8310     5.9450   -11.5630 hc         1 VHP       0.042367
     46 H9          40.2960     0.6150   -15.3270 h1         1 VHP       0.080700
     47 H10         43.7260     9.0520   -13.4580 hc         1 VHP       0.042367
     48 H11         44.3190     8.2500   -14.9160 hc         1 VHP       0.042367
     49 H12         42.6030     8.2210   -14.5360 hc         1 VHP       0.042367
     50 H13         41.6320    -0.7160   -11.3360 h1         1 VHP       0.092700
     51 H17         38.6990     0.0760   -11.0590 hc         1 VHP       0.062700
     52 H18         39.8570    -0.0920    -9.7540 hc         1 VHP       0.062700
     53 H19         42.4680    11.6340   -15.9070 ha         1 VHP       0.131500
     54 H20         39.9720     1.9650   -12.0200 hc         1 VHP       0.099700
     55 H21         42.2680     1.2560   -10.5890 hc         1 VHP       0.062700
     56 H22         41.9050     2.8940   -11.0940 hc         1 VHP       0.062700
     57 H23         41.4620     1.6740    -8.3460 h1         1 VHP       0.042700
     58 H24         42.0190     3.2960    -8.7580 h1         1 VHP       0.042700
     59 H25         39.0830    -2.2680   -11.9270 h1         1 VHP       0.023700
     60 H26         40.7390    -2.8180   -12.2040 h1         1 VHP       0.023700
     61 H27         40.9990     9.8660   -16.7880 ha         1 VHP       0.138500
     62 H28         42.2240     4.7580   -13.2880 h1         1 VHP       0.049700
     63 H29         41.3610    -1.5840   -15.7860 hc         1 VHP       0.057200
     64 H30         42.9210    -0.8060   -15.9540 hc         1 VHP       0.057200
     65 H31         42.0850     0.4770   -17.9140 hc         1 VHP       0.051700
     66 H32         43.1960    -1.7110   -18.2360 hc         1 VHP       0.036033
     67 H33         41.6450    -2.5380   -18.1000 hc         1 VHP       0.036033
     68 H34         41.9530    -1.4620   -19.4620 hc         1 VHP       0.036033
     69 H35         39.6740     0.6520   -17.3880 hc         1 VHP       0.036033
     70 H36         39.8920    -0.1390   -18.9390 hc         1 VHP       0.036033
     71 H37         39.4970    -1.0990   -17.5130 hc         1 VHP       0.036033
     72 H38         44.3630     7.9970   -18.6590 ha         1 VHP       0.138500
     73 H39         45.8320     9.7780   -17.7970 ha         1 VHP       0.131500
     74 H40         40.7300     8.1520   -18.6350 h1         1 VHP       0.065700
     75 H41         42.1260     7.2000   -19.1380 h1         1 VHP       0.065700
     76 H42         40.8440     5.3670   -15.4990 hn         1 VHP       0.336500
     77 H43         42.9490     1.6520   -15.9350 hn         1 VHP       0.331500
     78 H44         39.6650    -0.2980   -13.4960 hn         1 VHP       0.318500
     79 H45         39.5490     3.4460    -8.2780 hn         1 VHP       0.323500
     80 H46         39.8620    -3.5050   -10.1410 ho         1 VHP       0.410000
     81 O28         40.2000    -2.6070   -10.2050 oh         1 VHP      -0.595800
     82 C18         44.0380     3.6220   -13.3430 c3         1 VHP      -0.131100
     83 C8          43.7900     6.8900   -13.3020 c3         1 VHP       0.175800
     84 H14         44.3850     3.9750   -12.3720 hc         1 VHP       0.048700
     85 H15         43.5700     2.6510   -13.1770 hc         1 VHP       0.048700
     86 H16         44.9120     3.4720   -13.9800 hc         1 VHP       0.048700
@<TRIPOS>BOND
     1     1    11 ar  
     2     1    25 ar  
     3     1    38 1   
     4     2    39 1   
     5     2    40 1   
     6     2    41 1   
     7     2    83 1   
     8     3     4 1   
     9     3    18 1   
    10     3    28 1   
    11     3    42 1   
    12     4    29 1   
    13     4    35 2   
    14     5    43 1   
    15     5    44 1   
    16     5    45 1   
    17     5    83 1   
    18     6     7 1   
    19     6    19 1   
    20     6    29 1   
    21     6    46 1   
    22     7    30 1   
    23     7    36 2   
    24     8    47 1   
    25     8    48 1   
    26     8    49 1   
    27     8    83 1   
    28     9    10 1   
    29     9    16 1   
    30     9    30 1   
    31     9    50 1   
    32    10    12 1   
    33    10    51 1   
    34    10    52 1   
    35    11    17 ar  
    36    11    53 1   
    37    12    13 1   
    38    12    15 1   
    39    12    54 1   
    40    13    14 1   
    41    13    55 1   
    42    13    56 1   
    43    14    31 1   
    44    14    57 1   
    45    14    58 1   
    46    15    31 1   
    47    15    32 2   
    48    16    59 1   
    49    16    60 1   
    50    16    81 1   
    51    17    23 ar  
    52    17    61 1   
    53    18    34 1   
    54    18    62 1   
    55    18    82 1   
    56    19    20 1   
    57    19    63 1   
    58    19    64 1   
    59    20    21 1   
    60    20    22 1   
    61    20    65 1   
    62    21    66 1   
    63    21    67 1   
    64    21    68 1   
    65    22    69 1   
    66    22    70 1   
    67    22    71 1   
    68    23    24 ar  
    69    23    26 1   
    70    24    25 ar  
    71    24    72 1   
    72    25    73 1   
    73    26    37 1   
    74    26    74 1   
    75    26    75 1   
    76    27    28 1   
    77    27    33 2   
    78    27    37 1   
    79    28    76 1   
    80    29    77 1   
    81    30    78 1   
    82    31    79 1   
    83    34    83 1   
    84    80    81 1   
    85    82    84 1   
    86    82    85 1   
    87    82    86 1   
@<TRIPOS>SUBSTRUCTURE
     1 VHP         1 TEMP              0 ****  ****    0 ROOT
