@<TRIPOS>MOLECULE
VHQ
   33    35     1     0     0
SMALL
No Charge or Current Charge


@<TRIPOS>ATOM
      1 C1         -73.4500    48.1900    13.1890 ca         1 VHQ      -0.172000
      2 C11        -78.9800    50.4650    19.5370 c3         1 VHQ       0.066300
      3 C2         -74.6790    48.3670    13.8400 ca         1 VHQ       0.421000
      4 C7         -77.0280    47.4870    18.1580 ca         1 VHQ      -0.118800
      5 C6         -76.1740    47.1750    17.0810 ca         1 VHQ      -0.071000
      6 C5         -75.7920    48.1550    16.1510 ca         1 VHQ       0.234000
      7 C4         -75.4290    49.6210    11.9230 ca         1 VHQ       0.404900
      8 C3         -75.6830    49.0840    13.1860 ca         1 VHQ      -0.249000
      9 C8         -77.5280    48.8000    18.3070 ca         1 VHQ       0.101600
     10 C9         -77.0960    49.7960    17.4010 ca         1 VHQ      -0.149000
     11 C10        -76.2440    49.4740    16.3310 ca         1 VHQ      -0.075000
     12 C12        -78.6940    48.1500    20.4210 c          1 VHQ       0.561200
     13 C14        -77.3680    46.4400    19.1130 cc         1 VHQ      -0.089200
     14 C15        -72.3780    47.4570    13.7900 cg         1 VHQ       0.335000
     15 N3         -71.5130    46.8500    14.2860 n1         1 VHQ      -0.452000
     16 N          -74.2480    49.4730    11.2930 nb         1 VHQ      -0.695000
     17 C          -73.2840    48.7680    11.9210 ca         1 VHQ       0.518000
     18 Cl         -71.7740    48.6190    11.0190 cl         1 VHQ      -0.143000
     19 N1         -74.9290    47.8110    15.1010 nu         1 VHQ      -0.972000
     20 N2         -78.3690    49.1130    19.4370 n          1 VHQ      -0.279000
     21 O          -79.3850    48.3980    21.4000 o          1 VHQ      -0.540000
     22 C13        -78.1510    46.7980    20.1890 cd         1 VHQ      -0.281200
     23 H1         -79.7500    50.5110    20.3160 h1         1 VHQ       0.057700
     24 H2         -78.2030    51.2030    19.7710 h1         1 VHQ       0.057700
     25 H3         -79.4540    50.7280    18.5820 h1         1 VHQ       0.057700
     26 H4         -75.8030    46.1600    16.9670 ha         1 VHQ       0.126000
     27 H5         -76.1970    50.1830    11.3930 h4         1 VHQ       0.028100
     28 H6         -76.6620    49.2140    13.6330 ha         1 VHQ       0.139000
     29 H7         -77.4090    50.8310    17.5090 ha         1 VHQ       0.129000
     30 H8         -75.9190    50.2600    15.6560 ha         1 VHQ       0.130000
     31 H9         -77.0080    45.4180    19.0060 ha         1 VHQ       0.192000
     32 H10        -74.3580    46.9850    15.2960 hn         1 VHQ       0.514000
     33 H11        -78.4270    46.0770    20.9500 ha         1 VHQ       0.214000
@<TRIPOS>BOND
     1     1     3 ar  
     2     1    14 1   
     3     1    17 ar  
     4     2    20 1   
     5     2    23 1   
     6     2    24 1   
     7     2    25 1   
     8     3     8 ar  
     9     3    19 1   
    10     4     5 ar  
    11     4     9 ar  
    12     4    13 1   
    13     5     6 ar  
    14     5    26 1   
    15     6    11 ar  
    16     6    19 1   
    17     7     8 ar  
    18     7    16 ar  
    19     7    27 1   
    20     8    28 1   
    21     9    10 ar  
    22     9    20 1   
    23    10    11 ar  
    24    10    29 1   
    25    11    30 1   
    26    12    20 1   
    27    12    21 2   
    28    12    22 1   
    29    13    22 2   
    30    13    31 1   
    31    14    15 3   
    32    16    17 ar  
    33    17    18 1   
    34    19    32 1   
    35    22    33 1   
@<TRIPOS>SUBSTRUCTURE
     1 VHQ         1 TEMP              0 ****  ****    0 ROOT
