@<TRIPOS>MOLECULE
VHQ
   33    35     1     0     0
SMALL
abcg2


@<TRIPOS>ATOM
      1 C1         -73.4950    48.1900    13.1920 ca         1 VHQ      -0.172000
      2 C11        -78.8590    50.4370    19.4880 c3         1 VHQ       0.066300
      3 C2         -74.6160    48.4020    14.0300 ca         1 VHQ       0.421000
      4 C7         -76.9790    47.5240    18.0940 ca         1 VHQ      -0.118800
      5 C6         -76.0520    47.2700    17.0810 ca         1 VHQ      -0.071000
      6 C5         -75.5700    48.2930    16.2910 ca         1 VHQ       0.234000
      7 C4         -75.6720    49.3570    12.1020 ca         1 VHQ       0.404900
      8 C3         -75.7330    49.0070    13.4270 ca         1 VHQ      -0.249000
      9 C8         -77.4560    48.8310    18.3040 ca         1 VHQ       0.101600
     10 C9         -76.9600    49.8600    17.4930 ca         1 VHQ      -0.149000
     11 C10        -76.0220    49.5960    16.5190 ca         1 VHQ      -0.075000
     12 C12        -78.8850    48.0840    20.1250 c          1 VHQ       0.561200
     13 C14        -77.4760    46.4780    18.9330 cc         1 VHQ      -0.089200
     14 C15        -72.3220    47.5860    13.7070 cg         1 VHQ       0.335000
     15 N3         -71.3930    47.0890    14.1740 n1         1 VHQ      -0.452000
     16 N          -74.6080    49.1660    11.3100 nb         1 VHQ      -0.695000
     17 C          -73.5750    48.5970    11.8580 ca         1 VHQ       0.518000
     18 CL         -72.1990    48.3360    10.8470 cl         1 VHQ      -0.143000
     19 N1         -74.5860    48.0200    15.3200 nu         1 VHQ      -0.972000
     20 N2         -78.3850    49.0750    19.2960 n          1 VHQ      -0.279000
     21 O          -79.7050    48.3310    20.9990 o          1 VHQ      -0.540000
     22 C13        -78.3760    46.7430    19.8930 cd         1 VHQ      -0.281200
     23 H1         -79.5950    50.4470    20.2820 h1         1 VHQ       0.057700
     24 H2         -78.0370    51.0960    19.7660 h1         1 VHQ       0.057700
     25 H3         -79.3240    50.8120    18.5770 h1         1 VHQ       0.057700
     26 H4         -75.7100    46.2540    16.9260 ha         1 VHQ       0.126000
     27 H5         -76.5330    49.8170    11.6330 h4         1 VHQ       0.028100
     28 H6         -76.6430    49.1850    13.9800 ha         1 VHQ       0.139000
     29 H7         -77.2810    50.8830    17.6260 ha         1 VHQ       0.129000
     30 H8         -75.6300    50.4170    15.9340 ha         1 VHQ       0.130000
     31 H9         -77.1120    45.4690    18.7800 ha         1 VHQ       0.192000
     32 H10        -73.8160    47.4440    15.6280 hn         1 VHQ       0.514000
     33 H11        -78.7610    45.9640    20.5370 ha         1 VHQ       0.214000
@<TRIPOS>BOND
     1     1     3 ar  
     2     1    14 1   
     3     1    17 ar  
     4     2    20 1   
     5     2    23 1   
     6     2    24 1   
     7     2    25 1   
     8     3     8 ar  
     9     3    19 1   
    10     4     5 ar  
    11     4     9 ar  
    12     4    13 1   
    13     5     6 ar  
    14     5    26 1   
    15     6    11 ar  
    16     6    19 1   
    17     7     8 ar  
    18     7    16 ar  
    19     7    27 1   
    20     8    28 1   
    21     9    10 ar  
    22     9    20 1   
    23    10    11 ar  
    24    10    29 1   
    25    11    30 1   
    26    12    20 1   
    27    12    21 2   
    28    12    22 1   
    29    13    22 2   
    30    13    31 1   
    31    14    15 3   
    32    16    17 ar  
    33    17    18 1   
    34    19    32 1   
    35    22    33 1   
@<TRIPOS>SUBSTRUCTURE
     1 VHQ         1 TEMP              0 ****  ****    0 ROOT
