@<TRIPOS>MOLECULE
VHS
   52    55     1     0     0
SMALL
abcg2


@<TRIPOS>ATOM
      1 CL2        -17.5800   -12.1920    12.6840 cl         1 VHS      -0.165000
      2 C18        -16.5330   -12.4910    11.3260 ca         1 VHS       0.075000
      3 C12        -16.9250   -11.9720    10.0990 ca         1 VHS       0.169000
      4 F          -18.0700   -11.2720    10.0170 f          1 VHS      -0.162000
      5 C2         -16.1710   -12.1650     8.9610 ca         1 VHS      -0.129000
      6 C3         -14.9910   -12.8820     9.0630 ca         1 VHS      -0.075000
      7 C13        -14.5910   -13.3980    10.2900 ca         1 VHS       0.134000
      8 CL         -13.0710   -14.2640    10.3020 cl         1 VHS      -0.182000
      9 C17        -15.3530   -13.2390    11.4520 ca         1 VHS      -0.070300
     10 C21        -14.9720   -13.8160    12.8100 c3         1 VHS       0.223600
     11 C1         -13.8970   -12.9960    13.5030 c3         1 VHS      -0.086100
     12 O27        -14.4880   -15.1650    12.7370 os         1 VHS      -0.345100
     13 C15        -15.2770   -16.1200    12.1690 ca         1 VHS       0.028100
     14 C4         -16.5950   -15.9640    11.8160 ca         1 VHS      -0.125000
     15 C19        -14.6490   -17.3680    11.9300 ca         1 VHS       0.571900
     16 N22        -13.3500   -17.5670    12.3380 nv         1 VHS      -1.036900
     17 N23        -15.3080   -18.3720    11.3610 nb         1 VHS      -0.718000
     18 C5         -16.5850   -18.1940    10.9880 ca         1 VHS       0.356900
     19 C14        -17.2850   -17.0130    11.1810 ca         1 VHS      -0.053000
     20 C16        -18.6480   -16.8030    10.6970 cc         1 VHS      -0.149000
     21 C7         -19.2010   -15.5850    10.3230 cd         1 VHS      -0.157000
     22 C6         -19.6910   -17.7290    10.4730 cc         1 VHS       0.257900
     23 N24        -20.7860   -17.1300    10.0070 nd         1 VHS      -0.525800
     24 N26        -20.4700   -15.8200     9.9270 na         1 VHS       0.123800
     25 C20        -21.4160   -14.8760     9.3290 c6         1 VHS       0.098300
     26 C8         -21.2930   -14.8640     7.8040 c6         1 VHS      -0.129900
     27 C10        -22.2790   -13.8580     7.2010 c6         1 VHS       0.149800
     28 N25        -22.1580   -12.5080     7.7570 n7         1 VHS      -0.846400
     29 C11        -22.2390   -12.5140     9.2190 c6         1 VHS       0.149800
     30 C9         -21.2420   -13.4670     9.8900 c6         1 VHS      -0.129900
     31 H2         -16.5040   -11.7540     8.0180 ha         1 VHS       0.144000
     32 H3         -14.3740   -13.0410     8.1910 ha         1 VHS       0.142000
     33 H21        -15.8650   -13.8220    13.4320 h1         1 VHS       0.065700
     34 H11C       -13.6750   -13.4340    14.4770 hc         1 VHS       0.055700
     35 H12C       -12.9850   -12.9650    12.9090 hc         1 VHS       0.055700
     36 H13C       -14.2580   -11.9780    13.6500 hc         1 VHS       0.055700
     37 H4         -17.1140   -15.0410    12.0180 ha         1 VHS       0.120000
     38 H221       -12.8800   -18.3430    11.8950 hn         1 VHS       0.469500
     39 H222       -12.7880   -16.7360    12.4340 hn         1 VHS       0.469500
     40 H5         -17.0550   -19.0350    10.4900 h4         1 VHS       0.022100
     41 H7         -18.7710   -14.6000    10.3020 h4         1 VHS       0.150000
     42 H6         -19.6910   -18.7940    10.6510 h4         1 VHS       0.040100
     43 H20        -22.4050   -15.2480     9.6030 h1         1 VHS       0.085700
     44 H81C       -20.2690   -14.5850     7.5340 hc         1 VHS       0.057450
     45 H82C       -21.4820   -15.8650     7.4080 hc         1 VHS       0.057450
     46 H91C       -21.3870   -13.4700    10.9730 hc         1 VHS       0.057450
     47 H92C       -20.2300   -13.1080     9.6910 hc         1 VHS       0.057450
     48 H101       -22.1430   -13.8060     6.1200 h1         1 VHS       0.059450
     49 H102       -23.3020   -14.2040     7.3830 h1         1 VHS       0.059450
     50 H25        -21.2620   -12.1170     7.4790 hn         1 VHS       0.404000
     51 H111       -22.0780   -11.4980     9.5820 h1         1 VHS       0.059450
     52 H112       -23.2590   -12.8000     9.4980 h1         1 VHS       0.059450
@<TRIPOS>BOND
     1     1     2 1   
     2     2     3 ar  
     3     2     9 ar  
     4     3     4 1   
     5     3     5 ar  
     6     5     6 ar  
     7     5    31 1   
     8     6     7 ar  
     9     6    32 1   
    10     7     8 1   
    11     7     9 ar  
    12     9    10 1   
    13    10    11 1   
    14    10    12 1   
    15    10    33 1   
    16    11    34 1   
    17    11    35 1   
    18    11    36 1   
    19    12    13 1   
    20    13    14 ar  
    21    13    15 ar  
    22    14    19 ar  
    23    14    37 1   
    24    15    16 1   
    25    15    17 ar  
    26    16    38 1   
    27    16    39 1   
    28    17    18 ar  
    29    18    19 ar  
    30    18    40 1   
    31    19    20 1   
    32    20    21 2   
    33    20    22 1   
    34    21    24 1   
    35    21    41 1   
    36    22    23 2   
    37    22    42 1   
    38    23    24 1   
    39    24    25 1   
    40    25    26 1   
    41    25    30 1   
    42    25    43 1   
    43    26    27 1   
    44    26    44 1   
    45    26    45 1   
    46    27    28 1   
    47    27    48 1   
    48    27    49 1   
    49    28    29 1   
    50    28    50 1   
    51    29    30 1   
    52    29    51 1   
    53    29    52 1   
    54    30    46 1   
    55    30    47 1   
@<TRIPOS>SUBSTRUCTURE
     1 VHS         1 TEMP              0 ****  ****    0 ROOT
