@<TRIPOS>MOLECULE
VHS
   52    55     1     0     0
SMALL
No Charge or Current Charge


@<TRIPOS>ATOM
      1 Cl2        -17.5200   -11.9280    11.4090 cl         1 VHS      -0.165000
      2 C18        -16.1590   -12.4810    10.4180 ca         1 VHS       0.075000
      3 C12        -16.1970   -12.2040     9.0360 ca         1 VHS       0.169000
      4 F          -17.2540   -11.5510     8.4990 f          1 VHS      -0.162000
      5 C2         -15.1450   -12.5950     8.2010 ca         1 VHS      -0.129000
      6 C3         -14.0410   -13.2650     8.7460 ca         1 VHS      -0.075000
      7 C13        -13.9870   -13.5550    10.1200 ca         1 VHS       0.134000
      8 Cl         -12.5360   -14.3900    10.6890 cl         1 VHS      -0.182000
      9 C17        -15.0550   -13.1780    10.9840 ca         1 VHS      -0.070300
     10 C21        -15.0410   -13.5090    12.4950 c3         1 VHS       0.223600
     11 C1         -14.0610   -12.6250    13.2890 c3         1 VHS      -0.086100
     12 O27        -14.6710   -14.8850    12.7230 os         1 VHS      -0.345100
     13 C15        -15.4100   -15.9590    12.2360 ca         1 VHS       0.028100
     14 C4         -16.6910   -15.8000    11.6660 ca         1 VHS      -0.125000
     15 C19        -14.8770   -17.2730    12.2890 ca         1 VHS       0.571900
     16 N22        -13.6690   -17.5830    12.7960 nv         1 VHS      -1.036900
     17 N23        -15.4810   -18.3650    11.8260 nb         1 VHS      -0.718000
     18 C5         -16.7020   -18.1930    11.2660 ca         1 VHS       0.356900
     19 C14        -17.3520   -16.9380    11.1550 ca         1 VHS      -0.053000
     20 C16        -18.6690   -16.8360    10.5100 cc         1 VHS      -0.149000
     21 C7         -19.3090   -15.6490    10.3070 cd         1 VHS      -0.157000
     22 C6         -19.4940   -17.8340     9.9620 cc         1 VHS       0.257900
     23 N24        -20.6080   -17.3720     9.4320 nd         1 VHS      -0.525800
     24 N26        -20.4910   -16.0040     9.6460 na         1 VHS       0.123800
     25 C20        -21.5290   -15.0480     9.1910 c6         1 VHS       0.098300
     26 C8         -20.9560   -14.0340     8.1640 c6         1 VHS      -0.129900
     27 C10        -22.0420   -13.0250     7.7300 c6         1 VHS       0.149800
     28 N25        -22.6240   -12.3380     8.9090 n7         1 VHS      -0.846400
     29 C11        -23.2210   -13.2760     9.8910 c6         1 VHS       0.149800
     30 C9         -22.1680   -14.2930    10.3870 c6         1 VHS      -0.129900
     31 H2         -15.1840   -12.3750     7.1370 ha         1 VHS       0.144000
     32 H3         -13.2180   -13.5630     8.1000 ha         1 VHS       0.142000
     33 H21        -16.0310   -13.3450    12.9340 h1         1 VHS       0.065700
     34 H11C       -14.1020   -12.8730    14.3560 hc         1 VHS       0.055700
     35 H12C       -13.0290   -12.7550    12.9450 hc         1 VHS       0.055700
     36 H13C       -14.3280   -11.5680    13.1750 hc         1 VHS       0.055700
     37 H4         -17.1630   -14.8280    11.6190 ha         1 VHS       0.120000
     38 H221       -13.2970   -18.4820    12.5170 hn         1 VHS       0.469500
     39 H222       -13.0080   -16.8200    12.8950 hn         1 VHS       0.469500
     40 H5         -17.1760   -19.0970    10.8850 h4         1 VHS       0.022100
     41 H7         -19.0510   -14.6250    10.5460 h4         1 VHS       0.150000
     42 H6         -19.3070   -18.9000     9.9320 h4         1 VHS       0.040100
     43 H20        -22.3200   -15.6270     8.6930 h1         1 VHS       0.085700
     44 H81C       -20.1050   -13.4910     8.5960 hc         1 VHS       0.057450
     45 H82C       -20.5740   -14.5680     7.2840 hc         1 VHS       0.057450
     46 H91C       -22.6400   -15.0090    11.0730 hc         1 VHS       0.057450
     47 H92C       -21.3950   -13.7670    10.9640 hc         1 VHS       0.057450
     48 H101       -21.6050   -12.2830     7.0440 h1         1 VHS       0.059450
     49 H102       -22.8370   -13.5520     7.1800 h1         1 VHS       0.059450
     50 H25        -21.8770   -11.8100     9.3780 hn         1 VHS       0.404000
     51 H111       -23.6240   -12.7130    10.7470 h1         1 VHS       0.059450
     52 H112       -24.0610   -13.8140     9.4250 h1         1 VHS       0.059450
@<TRIPOS>BOND
     1     1     2 1   
     2     2     3 ar  
     3     2     9 ar  
     4     3     4 1   
     5     3     5 ar  
     6     5     6 ar  
     7     5    31 1   
     8     6     7 ar  
     9     6    32 1   
    10     7     8 1   
    11     7     9 ar  
    12     9    10 1   
    13    10    11 1   
    14    10    12 1   
    15    10    33 1   
    16    11    34 1   
    17    11    35 1   
    18    11    36 1   
    19    12    13 1   
    20    13    14 ar  
    21    13    15 ar  
    22    14    19 ar  
    23    14    37 1   
    24    15    16 1   
    25    15    17 ar  
    26    16    38 1   
    27    16    39 1   
    28    17    18 ar  
    29    18    19 ar  
    30    18    40 1   
    31    19    20 1   
    32    20    21 2   
    33    20    22 1   
    34    21    24 1   
    35    21    41 1   
    36    22    23 2   
    37    22    42 1   
    38    23    24 1   
    39    24    25 1   
    40    25    26 1   
    41    25    30 1   
    42    25    43 1   
    43    26    27 1   
    44    26    44 1   
    45    26    45 1   
    46    27    28 1   
    47    27    48 1   
    48    27    49 1   
    49    28    29 1   
    50    28    50 1   
    51    29    30 1   
    52    29    51 1   
    53    29    52 1   
    54    30    46 1   
    55    30    47 1   
@<TRIPOS>SUBSTRUCTURE
     1 VHS         1 TEMP              0 ****  ****    0 ROOT
