@<TRIPOS>MOLECULE
VHV
   76    77     1     0     0
SMALL
No Charge or Current Charge


@<TRIPOS>ATOM
      1 C1         -16.9280    11.3340    -3.7970 ca         1 VHV      -0.098000
      2 C11        -15.5790     5.1760    -0.7860 c3         1 VHV       0.055700
      3 C12        -15.5930     4.1040     0.3450 c          1 VHV       0.581100
      4 C14        -15.0880     1.6630     0.8550 c3         1 VHV       0.037700
      5 C15        -13.7510     0.9090     0.6040 c          1 VHV       0.586100
      6 C17        -12.1700    -0.8000     1.5760 c3         1 VHV       0.104700
      7 C19        -11.6290    -0.9880     3.0180 c3         1 VHV      -0.070400
      8 C2         -17.5660    10.3400    -4.5580 ca         1 VHV      -0.117500
      9 C20        -11.3760     0.3310     3.8050 c5         1 VHV      -0.159700
     10 C21        -10.3730     1.3150     3.1400 c5         1 VHV      -0.093400
     11 C22         -9.9530     2.1910     4.3510 c5         1 VHV       0.100000
     12 C24        -10.7640     0.1160     5.1950 c          1 VHV       0.566000
     13 C3         -18.3230     9.3410    -3.9200 ca         1 VHV      -0.080000
     14 C30        -14.2150     5.9400    -0.8710 c3         1 VHV      -0.068700
     15 C31        -14.2110     7.0480    -1.9570 c3         1 VHV      -0.093600
     16 C32        -13.0050     4.9940    -1.0770 c3         1 VHV      -0.093600
     17 C34        -16.3070     0.7200     0.6360 c3         1 VHV      -0.083400
     18 C35        -17.6920     1.2890     1.0570 c3         1 VHV      -0.062700
     19 C36        -17.8000     1.5220     2.5830 c3         1 VHV      -0.088100
     20 C37        -18.8350     0.3710     0.5680 c3         1 VHV      -0.088100
     21 C4         -18.4460     9.3310    -2.5160 ca         1 VHV      -0.128300
     22 C5         -17.8050    10.3320    -1.7590 ca         1 VHV      -0.080000
     23 C6         -17.0480    11.3300    -2.3980 ca         1 VHV      -0.117500
     24 C7         -19.2620     8.2460    -1.8160 c3         1 VHV       0.230900
     25 C8         -12.4140    -2.1410     0.8290 c3         1 VHV       0.151600
     26 C9         -17.5030     6.6320    -1.5350 c          1 VHV       0.637100
     27 N10        -16.6980     6.1150    -0.5600 ns         1 VHV      -0.479900
     28 N13        -15.1690     2.8460    -0.0320 ns         1 VHV      -0.473900
     29 N16        -13.3930     0.0140     1.5900 ns         1 VHV      -0.499900
     30 N23         -9.9440     1.1900     5.4150 ns         1 VHV      -0.515900
     31 O26        -10.7710    -0.8760     5.9050 o          1 VHV      -0.558000
     32 O29        -17.4390     6.3480    -2.7210 o          1 VHV      -0.543000
     33 O33        -15.9660     4.3480     1.4870 o          1 VHV      -0.619100
     34 O8         -18.3950     7.4830    -0.9570 os         1 VHV      -0.450100
     35 O9         -11.1950    -2.8840     0.6820 oh         1 VHV      -0.657000
     36 H1         -16.3420    12.1060    -4.2920 ha         1 VHV       0.112000
     37 H2         -15.7500     4.6490    -1.7330 h1         1 VHV       0.075700
     38 H3         -15.0620     1.9940     1.9000 h1         1 VHV       0.077700
     39 H4         -11.4060    -0.2520     1.0080 h1         1 VHV       0.091700
     40 H5         -12.3340    -1.6150     3.5780 hc         1 VHV       0.066700
     41 H6         -10.6930    -1.5580     2.9690 hc         1 VHV       0.066700
     42 H7         -17.4730    10.3410    -5.6420 ha         1 VHV       0.113500
     43 H8         -12.3230     0.8610     3.9590 hc         1 VHV       0.091700
     44 H9         -10.8150     1.9030     2.3270 hc         1 VHV       0.063700
     45 H10         -9.5060     0.7840     2.7290 hc         1 VHV       0.063700
     46 H11         -8.9720     2.6620     4.2000 h1         1 VHV       0.041200
     47 H12        -10.6910     2.9800     4.5530 h1         1 VHV       0.041200
     48 H13        -18.8090     8.5730    -4.5180 ha         1 VHV       0.116500
     49 H14        -14.0630     6.4430     0.0930 hc         1 VHV       0.062700
     50 H15        -14.9530     7.8250    -1.7390 hc         1 VHV       0.041533
     51 H16        -13.2320     7.5400    -2.0080 hc         1 VHV       0.041533
     52 H17        -14.4330     6.6260    -2.9450 hc         1 VHV       0.041533
     53 H18        -12.8750     4.3200    -0.2220 hc         1 VHV       0.041533
     54 H19        -13.1290     4.3900    -1.9840 hc         1 VHV       0.041533
     55 H20        -12.0760     5.5690    -1.1770 hc         1 VHV       0.041533
     56 H21        -16.1410    -0.2160     1.1830 hc         1 VHV       0.056200
     57 H22        -16.3390     0.4470    -0.4270 hc         1 VHV       0.056200
     58 H23        -17.8310     2.2580     0.5610 hc         1 VHV       0.060700
     59 H24        -17.0550     2.2460     2.9320 hc         1 VHV       0.034533
     60 H25        -18.7890     1.9160     2.8440 hc         1 VHV       0.034533
     61 H26        -17.6500     0.5850     3.1330 hc         1 VHV       0.034533
     62 H27        -19.8130     0.7960     0.8280 hc         1 VHV       0.034533
     63 H28        -18.8000     0.2520    -0.5220 hc         1 VHV       0.034533
     64 H29        -18.7610    -0.6240     1.0250 hc         1 VHV       0.034533
     65 H30        -17.8900    10.3340    -0.6740 ha         1 VHV       0.116500
     66 H31        -16.5540    12.0980    -1.8070 ha         1 VHV       0.113500
     67 H32        -20.0480     8.7290    -1.2210 h1         1 VHV       0.066200
     68 H33        -19.7610     7.5990    -2.5510 h1         1 VHV       0.066200
     69 H34        -13.1550    -2.7310     1.3840 h1         1 VHV       0.023200
     70 H35        -12.8390    -1.9230    -0.1600 h1         1 VHV       0.023200
     71 H36        -16.9000     6.4140     0.3860 hn         1 VHV       0.334500
     72 H37        -14.8420     2.7410    -0.9860 hn         1 VHV       0.331500
     73 H38        -14.0260    -0.0820     2.3750 hn         1 VHV       0.317500
     74 H39         -9.3710     1.2080     6.2500 hn         1 VHV       0.324500
     75 H40        -11.4190    -3.7100     0.1970 ho         1 VHV       0.448000
     76 O38        -13.0530     1.0940    -0.3860 o          1 VHV      -0.608100
@<TRIPOS>BOND
     1     1     8 ar  
     2     1    23 ar  
     3     1    36 1   
     4     2     3 1   
     5     2    14 1   
     6     2    27 1   
     7     2    37 1   
     8     3    28 1   
     9     3    33 2   
    10     4     5 1   
    11     4    17 1   
    12     4    28 1   
    13     4    38 1   
    14     5    29 1   
    15     5    76 2   
    16     6     7 1   
    17     6    25 1   
    18     6    29 1   
    19     6    39 1   
    20     7     9 1   
    21     7    40 1   
    22     7    41 1   
    23     8    13 ar  
    24     8    42 1   
    25     9    10 1   
    26     9    12 1   
    27     9    43 1   
    28    10    11 1   
    29    10    44 1   
    30    10    45 1   
    31    11    30 1   
    32    11    46 1   
    33    11    47 1   
    34    12    30 1   
    35    12    31 2   
    36    13    21 ar  
    37    13    48 1   
    38    14    15 1   
    39    14    16 1   
    40    14    49 1   
    41    15    50 1   
    42    15    51 1   
    43    15    52 1   
    44    16    53 1   
    45    16    54 1   
    46    16    55 1   
    47    17    18 1   
    48    17    56 1   
    49    17    57 1   
    50    18    19 1   
    51    18    20 1   
    52    18    58 1   
    53    19    59 1   
    54    19    60 1   
    55    19    61 1   
    56    20    62 1   
    57    20    63 1   
    58    20    64 1   
    59    21    22 ar  
    60    21    24 1   
    61    22    23 ar  
    62    22    65 1   
    63    23    66 1   
    64    24    34 1   
    65    24    67 1   
    66    24    68 1   
    67    25    35 1   
    68    25    69 1   
    69    25    70 1   
    70    26    27 1   
    71    26    32 2   
    72    26    34 1   
    73    27    71 1   
    74    28    72 1   
    75    29    73 1   
    76    30    74 1   
    77    35    75 1   
@<TRIPOS>SUBSTRUCTURE
     1 VHV         1 TEMP              0 ****  ****    0 ROOT
