@<TRIPOS>MOLECULE
VHV
   76    77     1     0     0
SMALL
abcg2


@<TRIPOS>ATOM
      1 C1         -19.2650     9.2490    -3.1480 ca         1 VHV      -0.098000
      2 C11        -14.0220     5.1960    -0.4320 c3         1 VHV       0.055700
      3 C12        -14.4950     3.9410     0.3050 c          1 VHV       0.581100
      4 C14        -15.3520     1.6710     0.0790 c3         1 VHV       0.037700
      5 C15        -14.1680     0.7830     0.4660 c          1 VHV       0.586100
      6 C17        -13.1650    -0.4890     2.3330 c3         1 VHV       0.104700
      7 C19        -12.5990     0.2310     3.5570 c3         1 VHV      -0.070400
      8 C2         -19.7470     8.0270    -2.6990 ca         1 VHV      -0.117500
      9 C20        -12.0890     1.6270     3.2410 c5         1 VHV      -0.159700
     10 C21        -10.9350     1.7080     2.2420 c5         1 VHV      -0.093400
     11 C22        -10.2140     2.9980     2.6320 c5         1 VHV       0.100000
     12 C24        -11.5400     2.3540     4.4590 c          1 VHV       0.566000
     13 C3         -19.3110     7.5120    -1.4850 ca         1 VHV      -0.080000
     14 C30        -12.5050     5.3650    -0.2610 c3         1 VHV      -0.068700
     15 C31        -12.0070     6.6410    -0.9340 c3         1 VHV      -0.093600
     16 C32        -11.7570     4.1600    -0.8230 c3         1 VHV      -0.093600
     17 C34        -16.2420     0.9560    -0.9340 c3         1 VHV      -0.083400
     18 C35        -17.4920     1.7410    -1.3420 c3         1 VHV      -0.062700
     19 C36        -18.3890     2.0610    -0.1510 c3         1 VHV      -0.088100
     20 C37        -18.2620     0.9560    -2.3990 c3         1 VHV      -0.088100
     21 C4         -18.4050     8.2170    -0.7020 ca         1 VHV      -0.128300
     22 C5         -17.9290     9.4440    -1.1570 ca         1 VHV      -0.080000
     23 C6         -18.3530     9.9570    -2.3750 ca         1 VHV      -0.117500
     24 C7         -17.9530     7.6760     0.6250 c3         1 VHV       0.230900
     25 C8         -13.7230    -1.8680     2.6700 c3         1 VHV       0.151600
     26 C9         -16.0620     6.4210    -0.0060 c          1 VHV       0.637100
     27 N10        -14.7180     6.3460     0.0920 ns         1 VHV      -0.479900
     28 N13        -14.8660     2.9140    -0.4670 ns         1 VHV      -0.473900
     29 N16        -14.2120     0.3000     1.7170 ns         1 VHV      -0.499900
     30 N23        -10.4830     3.0780     4.0520 ns         1 VHV      -0.515900
     31 O26        -11.9870     2.3080     5.5940 o          1 VHV      -0.558000
     32 O29        -16.7470     5.6460    -0.6370 o          1 VHV      -0.543000
     33 O33        -14.5100     3.9020     1.5270 o          1 VHV      -0.619100
     34 O8         -16.5400     7.4670     0.6770 os         1 VHV      -0.450100
     35 O9         -12.6870    -2.6560     3.2030 oh         1 VHV      -0.657000
     36 H1         -19.6010     9.6490    -4.0960 ha         1 VHV       0.112000
     37 H2         -14.2380     5.1070    -1.5020 h1         1 VHV       0.075700
     38 H3         -15.9400     1.9020     0.9690 h1         1 VHV       0.077700
     39 H4         -12.3790    -0.6110     1.5850 h1         1 VHV       0.091700
     40 H5         -13.3720     0.2930     4.3310 hc         1 VHV       0.066700
     41 H6         -11.7870    -0.3720     3.9710 hc         1 VHV       0.066700
     42 H7         -20.4550     7.4690    -3.2980 ha         1 VHV       0.113500
     43 H8         -12.9200     2.2460     2.8770 hc         1 VHV       0.091700
     44 H9         -11.2610     1.7130     1.2040 hc         1 VHV       0.063700
     45 H10        -10.2660     0.8540     2.3780 hc         1 VHV       0.063700
     46 H11         -9.1430     2.9610     2.4350 h1         1 VHV       0.041200
     47 H12        -10.6240     3.8650     2.1030 h1         1 VHV       0.041200
     48 H13        -19.6780     6.5510    -1.1460 ha         1 VHV       0.116500
     49 H14        -12.2980     5.4310     0.8130 hc         1 VHV       0.062700
     50 H15        -12.4500     7.5440    -0.5160 hc         1 VHV       0.041533
     51 H16        -10.9250     6.7260    -0.8180 hc         1 VHV       0.041533
     52 H17        -12.2240     6.6260    -2.0040 hc         1 VHV       0.041533
     53 H18        -12.0730     3.2150    -0.3810 hc         1 VHV       0.041533
     54 H19        -11.9010     4.0810    -1.9030 hc         1 VHV       0.041533
     55 H20        -10.6880     4.2640    -0.6380 hc         1 VHV       0.041533
     56 H21        -16.5460    -0.0030    -0.5000 hc         1 VHV       0.056200
     57 H22        -15.6520     0.7170    -1.8250 hc         1 VHV       0.056200
     58 H23        -17.1790     2.6910    -1.7880 hc         1 VHV       0.060700
     59 H24        -17.8980     2.7070     0.5770 hc         1 VHV       0.034533
     60 H25        -19.2920     2.5790    -0.4790 hc         1 VHV       0.034533
     61 H26        -18.7010     1.1470     0.3620 hc         1 VHV       0.034533
     62 H27        -19.1540     1.4970    -2.7160 hc         1 VHV       0.034533
     63 H28        -17.6520     0.7710    -3.2850 hc         1 VHV       0.034533
     64 H29        -18.5840    -0.0120    -2.0080 hc         1 VHV       0.034533
     65 H30        -17.2270    10.0090    -0.5550 ha         1 VHV       0.116500
     66 H31        -17.9770    10.9120    -2.7170 ha         1 VHV       0.113500
     67 H32        -18.1460     8.3980     1.4180 h1         1 VHV       0.066200
     68 H33        -18.4870     6.7560     0.8710 h1         1 VHV       0.066200
     69 H34        -14.5530    -1.7530     3.3810 h1         1 VHV       0.023200
     70 H35        -14.1400    -2.3080     1.7560 h1         1 VHV       0.023200
     71 H36        -14.2540     6.9180     0.7820 hn         1 VHV       0.334500
     72 H37        -14.8470     3.0220    -1.4680 hn         1 VHV       0.331500
     73 H38        -14.9690     0.6050     2.3110 hn         1 VHV       0.317500
     74 H39        -10.0310     3.7490     4.6540 hn         1 VHV       0.324500
     75 H40        -13.0590    -3.4980     3.4810 ho         1 VHV       0.448000
     76 O38        -13.2760     0.5440    -0.3340 o          1 VHV      -0.608100
@<TRIPOS>BOND
     1     1     8 ar  
     2     1    23 ar  
     3     1    36 1   
     4     2     3 1   
     5     2    14 1   
     6     2    27 1   
     7     2    37 1   
     8     3    28 1   
     9     3    33 2   
    10     4     5 1   
    11     4    17 1   
    12     4    28 1   
    13     4    38 1   
    14     5    29 1   
    15     5    76 2   
    16     6     7 1   
    17     6    25 1   
    18     6    29 1   
    19     6    39 1   
    20     7     9 1   
    21     7    40 1   
    22     7    41 1   
    23     8    13 ar  
    24     8    42 1   
    25     9    10 1   
    26     9    12 1   
    27     9    43 1   
    28    10    11 1   
    29    10    44 1   
    30    10    45 1   
    31    11    30 1   
    32    11    46 1   
    33    11    47 1   
    34    12    30 1   
    35    12    31 2   
    36    13    21 ar  
    37    13    48 1   
    38    14    15 1   
    39    14    16 1   
    40    14    49 1   
    41    15    50 1   
    42    15    51 1   
    43    15    52 1   
    44    16    53 1   
    45    16    54 1   
    46    16    55 1   
    47    17    18 1   
    48    17    56 1   
    49    17    57 1   
    50    18    19 1   
    51    18    20 1   
    52    18    58 1   
    53    19    59 1   
    54    19    60 1   
    55    19    61 1   
    56    20    62 1   
    57    20    63 1   
    58    20    64 1   
    59    21    22 ar  
    60    21    24 1   
    61    22    23 ar  
    62    22    65 1   
    63    23    66 1   
    64    24    34 1   
    65    24    67 1   
    66    24    68 1   
    67    25    35 1   
    68    25    69 1   
    69    25    70 1   
    70    26    27 1   
    71    26    32 2   
    72    26    34 1   
    73    27    71 1   
    74    28    72 1   
    75    29    73 1   
    76    30    74 1   
    77    35    75 1   
@<TRIPOS>SUBSTRUCTURE
     1 VHV         1 TEMP              0 ****  ****    0 ROOT
