@<TRIPOS>MOLECULE
VHZ
   45    47     1     0     0
SMALL
abcg2


@<TRIPOS>ATOM
      1 C10         91.3220   -11.3890    17.8530 ca         1 VHZ      -0.144800
      2 C13         89.7430   -12.4840    19.3480 cc         1 VHZ      -0.413200
      3 C14         89.3740   -11.2270    19.9370 c          1 VHZ       0.584200
      4 C17         87.2380   -14.8060    16.3240 c3         1 VHZ       0.094300
      5 C18         91.3180   -16.1890    17.6890 c3         1 VHZ      -0.105100
      6 C           94.4160    -9.1600    11.9220 ca         1 VHZ       0.519000
      7 C4          94.6770    -9.6980    13.1840 ca         1 VHZ      -0.174000
      8 C5          95.9590   -10.1970    13.5200 cg         1 VHZ       0.335000
      9 N1          96.9890   -10.6090    13.8360 n1         1 VHZ      -0.453000
     10 C3          93.6290    -9.7220    14.1350 ca         1 VHZ       0.421000
     11 C2          92.3980    -9.1870    13.7150 ca         1 VHZ      -0.251000
     12 C1          92.2840    -8.6880    12.4430 ca         1 VHZ       0.405900
     13 N           93.2740    -8.6670    11.5400 nb         1 VHZ      -0.696000
     14 C6          92.8450   -10.2100    16.3900 ca         1 VHZ       0.212000
     15 C11         92.2570   -11.3830    16.8120 ca         1 VHZ      -0.060000
     16 C12         90.6770   -12.5960    18.3530 cd         1 VHZ       0.261800
     17 N4          91.0070   -13.7870    17.7970 nu         1 VHZ      -0.836200
     18 C15         90.4940   -15.0470    18.2750 c3         1 VHZ       0.141500
     19 C16         89.0200   -15.2660    17.9200 c          1 VHZ       0.585100
     20 N5          88.5880   -14.6590    16.8120 ns         1 VHZ      -0.493900
     21 O1          88.3240   -16.0030    18.6040 o          1 VHZ      -0.596100
     22 O           88.5460   -11.0960    20.8330 o          1 VHZ      -0.546000
     23 N3          90.0290   -10.1270    19.4320 ns         1 VHZ      -0.381100
     24 C9          90.9620   -10.1640    18.4370 ca         1 VHZ       0.128600
     25 C8          91.5580    -8.9750    17.9970 ca         1 VHZ      -0.165000
     26 C7          92.4960    -8.9990    16.9930 ca         1 VHZ      -0.053000
     27 H1          89.2410   -13.3500    19.7550 ha         1 VHZ       0.222000
     28 H2          87.1240   -14.1950    15.4330 h1         1 VHZ       0.042367
     29 H3          87.0140   -15.8410    16.0620 h1         1 VHZ       0.042367
     30 H4          86.5070   -14.4750    17.0630 h1         1 VHZ       0.042367
     31 H5          92.3600   -16.1010    17.9960 hc         1 VHZ       0.053700
     32 H6          90.9440   -17.1460    18.0450 hc         1 VHZ       0.053700
     33 H7          91.2750   -16.1860    16.5990 hc         1 VHZ       0.053700
     34 H8          91.5410    -9.1750    14.3720 ha         1 VHZ       0.138000
     35 H9          91.3370    -8.2800    12.1130 h4         1 VHZ       0.028100
     36 H10         94.6850   -10.7110    15.5660 hn         1 VHZ       0.516000
     37 H11         92.5390   -12.2940    16.3020 ha         1 VHZ       0.117000
     38 H12         91.8460   -13.8390    17.2440 hn         1 VHZ       0.490000
     39 H13         90.5610   -15.0970    19.3680 h1         1 VHZ       0.086700
     40 H14         89.2230   -14.0580    16.3120 hn         1 VHZ       0.323500
     41 H15         89.7910    -9.2310    19.8340 hn         1 VHZ       0.330500
     42 H16         91.2820    -8.0370    18.4600 ha         1 VHZ       0.130000
     43 H17         92.9640    -8.0780    16.6690 ha         1 VHZ       0.133000
     44 N2          93.8150   -10.2400    15.3610 nu         1 VHZ      -0.981000
     45 CL          95.7010    -9.1420    10.7680 cl         1 VHZ      -0.143000
@<TRIPOS>BOND
     1     1    15 ar  
     2     1    16 1   
     3     1    24 ar  
     4     2     3 1   
     5     2    16 2   
     6     2    27 1   
     7     3    22 2   
     8     3    23 1   
     9     4    20 1   
    10     4    28 1   
    11     4    29 1   
    12     4    30 1   
    13     5    18 1   
    14     5    31 1   
    15     5    32 1   
    16     5    33 1   
    17     6     7 ar  
    18     6    13 ar  
    19     6    45 1   
    20     7     8 1   
    21     7    10 ar  
    22     8     9 3   
    23    10    11 ar  
    24    10    44 1   
    25    11    12 ar  
    26    11    34 1   
    27    12    13 ar  
    28    12    35 1   
    29    14    15 ar  
    30    14    26 ar  
    31    14    44 1   
    32    15    37 1   
    33    16    17 1   
    34    17    18 1   
    35    17    38 1   
    36    18    19 1   
    37    18    39 1   
    38    19    20 1   
    39    19    21 2   
    40    20    40 1   
    41    23    24 1   
    42    23    41 1   
    43    24    25 ar  
    44    25    26 ar  
    45    25    42 1   
    46    26    43 1   
    47    36    44 1   
@<TRIPOS>SUBSTRUCTURE
     1 VHZ         1 TEMP              0 ****  ****    0 ROOT
