@<TRIPOS>MOLECULE
VHZ
   45    47     1     0     0
SMALL
No Charge or Current Charge


@<TRIPOS>ATOM
      1 C10         91.1460   -11.4490    17.6530 ca         1 VHZ      -0.144800
      2 C13         89.7750   -12.5340    19.3820 cc         1 VHZ      -0.413200
      3 C14         89.4020   -11.2360    19.9490 c          1 VHZ       0.584200
      4 C17         86.9220   -15.0690    17.0020 c3         1 VHZ       0.094300
      5 C18         91.5320   -16.3030    17.9100 c3         1 VHZ      -0.105100
      6 C           95.1170    -8.6610    12.0760 ca         1 VHZ       0.519000
      7 C4          94.8850    -9.5730    13.1160 ca         1 VHZ      -0.174000
      8 C5          95.8890   -10.5290    13.4710 cg         1 VHZ       0.335000
      9 N1          96.6980   -11.3180    13.7620 n1         1 VHZ      -0.453000
     10 C3          93.6590    -9.5050    13.7930 ca         1 VHZ       0.421000
     11 C2          92.7230    -8.5550    13.3830 ca         1 VHZ      -0.251000
     12 C1          93.0390    -7.6890    12.3350 ca         1 VHZ       0.405900
     13 N           94.2190    -7.7320    11.6860 nb         1 VHZ      -0.696000
     14 C6          92.4870   -10.3060    15.9410 ca         1 VHZ       0.212000
     15 C11         92.0020   -11.4920    16.5260 ca         1 VHZ      -0.060000
     16 C12         90.6050   -12.6620    18.2940 cd         1 VHZ       0.261800
     17 N4          90.8950   -13.9210    17.8240 nu         1 VHZ      -0.836200
     18 C15         90.5440   -15.2430    18.4380 c3         1 VHZ       0.141500
     19 C16         89.0550   -15.6840    18.1980 c          1 VHZ       0.585100
     20 N5          88.3250   -14.8670    17.3620 ns         1 VHZ      -0.493900
     21 O1          88.5590   -16.6780    18.7160 o          1 VHZ      -0.596100
     22 O           88.6700   -11.1060    20.9140 o          1 VHZ      -0.546000
     23 N3          89.9470   -10.1630    19.3010 ns         1 VHZ      -0.381100
     24 C9          90.7940   -10.1980    18.1870 ca         1 VHZ       0.128600
     25 C8          91.2830    -9.0110    17.6240 ca         1 VHZ      -0.165000
     26 C7          92.1320    -9.0650    16.5050 ca         1 VHZ      -0.053000
     27 H1          89.3380   -13.3760    19.8960 ha         1 VHZ       0.222000
     28 H2          86.5990   -14.2690    16.3230 h1         1 VHZ       0.042367
     29 H3          86.8050   -16.0380    16.5000 h1         1 VHZ       0.042367
     30 H4          86.3020   -15.0480    17.9070 h1         1 VHZ       0.042367
     31 H5          92.5670   -16.0130    18.1300 hc         1 VHZ       0.053700
     32 H6          91.3460   -17.2730    18.3870 hc         1 VHZ       0.053700
     33 H7          91.4270   -16.4300    16.8260 hc         1 VHZ       0.053700
     34 H8          91.7470    -8.4900    13.8500 ha         1 VHZ       0.138000
     35 H9          92.3240    -6.9410    11.9960 h4         1 VHZ       0.028100
     36 H10         93.8530   -11.2740    14.7730 hn         1 VHZ       0.516000
     37 H11         92.2910   -12.4430    16.0890 ha         1 VHZ       0.117000
     38 H12         91.5540   -13.9430    17.0460 hn         1 VHZ       0.490000
     39 H13         90.6720   -15.1850    19.5280 h1         1 VHZ       0.086700
     40 H14         88.8230   -14.0550    17.0090 hn         1 VHZ       0.323500
     41 H15         89.7060    -9.2530    19.6720 hn         1 VHZ       0.330500
     42 H16         91.0140    -8.0480    18.0520 ha         1 VHZ       0.130000
     43 H17         92.5260    -8.1420    16.0910 ha         1 VHZ       0.133000
     44 N2          93.3450   -10.3890    14.8340 nu         1 VHZ      -0.981000
     45 Cl          96.6300    -8.6490    11.1660 cl         1 VHZ      -0.143000
@<TRIPOS>BOND
     1     1    15 ar  
     2     1    16 1   
     3     1    24 ar  
     4     2     3 1   
     5     2    16 2   
     6     2    27 1   
     7     3    22 2   
     8     3    23 1   
     9     4    20 1   
    10     4    28 1   
    11     4    29 1   
    12     4    30 1   
    13     5    18 1   
    14     5    31 1   
    15     5    32 1   
    16     5    33 1   
    17     6     7 ar  
    18     6    13 ar  
    19     6    45 1   
    20     7     8 1   
    21     7    10 ar  
    22     8     9 3   
    23    10    11 ar  
    24    10    44 1   
    25    11    12 ar  
    26    11    34 1   
    27    12    13 ar  
    28    12    35 1   
    29    14    15 ar  
    30    14    26 ar  
    31    14    44 1   
    32    15    37 1   
    33    16    17 1   
    34    17    18 1   
    35    17    38 1   
    36    18    19 1   
    37    18    39 1   
    38    19    20 1   
    39    19    21 2   
    40    20    40 1   
    41    23    24 1   
    42    23    41 1   
    43    24    25 ar  
    44    25    26 ar  
    45    25    42 1   
    46    26    43 1   
    47    36    44 1   
@<TRIPOS>SUBSTRUCTURE
     1 VHZ         1 TEMP              0 ****  ****    0 ROOT
