@<TRIPOS>MOLECULE
VI0
   38    41     1     0     0
SMALL
No Charge or Current Charge


@<TRIPOS>ATOM
      1 C01          4.6680     6.3940    18.8800 c3         1 VI0       0.355100
      2 C02          4.5220     6.4470    20.4120 ca         1 VI0      -0.100300
      3 C05          3.6000     5.5810    21.0480 ca         1 VI0      -0.061300
      4 C06          5.2920     7.3290    21.2090 ca         1 VI0      -0.087000
      5 C07          5.7750     8.6030    18.1660 ca         1 VI0      -0.097500
      6 C10          2.7590     4.6120    20.2240 c3         1 VI0       0.044200
      7 C11          3.4500     5.6160    22.4490 ca         1 VI0      -0.107000
      8 C13          6.8670     9.3220    17.6500 ca         1 VI0      -0.110000
      9 C15          1.7720     5.3380    19.3150 ca         1 VI0      -0.301300
     10 C17          4.2150     6.4990    23.2260 ca         1 VI0      -0.099000
     11 C18          8.0420     8.6470    17.2790 ca         1 VI0      -0.101000
     12 C19          0.4060     5.0020    19.3580 ca         1 VI0       0.168900
     13 C20         -0.0230     6.5560    17.7530 ca         1 VI0       0.395900
     14 C03          5.8470     7.1990    18.3180 ca         1 VI0      -0.106300
     15 N04          3.4300     6.8190    18.2220 nu         1 VI0      -0.939100
     16 C08          7.0330     6.5330    17.9440 ca         1 VI0      -0.097500
     17 C09          2.1410     6.3520    18.4050 ca         1 VI0       0.437900
     18 C12          5.1370     7.3530    22.6050 ca         1 VI0      -0.115000
     19 C14          8.1240     7.2530    17.4270 ca         1 VI0      -0.110000
     20 N16          1.2420     6.9610    17.6200 nb         1 VI0      -0.337000
     21 N21         -0.5000     5.6130    18.5730 nb         1 VI0      -0.273000
     22 N22         -0.9250     7.1730    16.9570 nv         1 VI0      -1.049900
     23 H1           4.8510     5.3440    18.6100 h1         1 VI0       0.058700
     24 H23          6.0180     8.0020    20.7620 ha         1 VI0       0.120000
     25 H24          4.8760     9.1420    18.4620 ha         1 VI0       0.119500
     26 H27          3.4070     3.9600    19.6260 hc         1 VI0       0.049200
     27 H26          2.2180     3.9290    20.8910 hc         1 VI0       0.049200
     28 H28          2.7380     4.9560    22.9400 ha         1 VI0       0.113000
     29 H30          6.8030    10.4020    17.5400 ha         1 VI0       0.116500
     30 H32          4.0950     6.5190    24.3070 ha         1 VI0       0.114000
     31 H33          8.8870     9.2040    16.8790 ha         1 VI0       0.116000
     32 H34          0.0270     4.2320    20.0290 h4         1 VI0       0.013100
     33 H2           3.5250     7.5260    17.4980 hn         1 VI0       0.504000
     34 H25          7.1130     5.4530    18.0550 ha         1 VI0       0.119500
     35 H29          5.7340     8.0360    23.2060 ha         1 VI0       0.114000
     36 H31          9.0340     6.7300    17.1420 ha         1 VI0       0.116500
     37 H35         -0.5790     7.7270    16.1780 hn         1 VI0       0.482500
     38 H36         -1.8480     6.7580    16.8540 hn         1 VI0       0.482500
@<TRIPOS>BOND
     1     1     2 1   
     2     1    14 1   
     3     1    15 1   
     4     1    23 1   
     5     2     3 ar  
     6     2     4 ar  
     7     3     6 1   
     8     3     7 ar  
     9     4    18 ar  
    10     4    24 1   
    11     5     8 ar  
    12     5    14 ar  
    13     5    25 1   
    14     6     9 1   
    15     6    26 1   
    16     6    27 1   
    17     7    10 ar  
    18     7    28 1   
    19     8    11 ar  
    20     8    29 1   
    21     9    12 ar  
    22     9    17 ar  
    23    10    18 ar  
    24    10    30 1   
    25    11    19 ar  
    26    11    31 1   
    27    12    21 ar  
    28    12    32 1   
    29    13    20 ar  
    30    13    21 ar  
    31    13    22 1   
    32    14    16 ar  
    33    15    17 1   
    34    15    33 1   
    35    16    19 ar  
    36    16    34 1   
    37    17    20 ar  
    38    18    35 1   
    39    19    36 1   
    40    22    37 1   
    41    22    38 1   
@<TRIPOS>SUBSTRUCTURE
     1 VI0         1 TEMP              0 ****  ****    0 ROOT
