@<TRIPOS>MOLECULE
VI0
   38    41     1     0     0
SMALL
abcg2


@<TRIPOS>ATOM
      1 C01          4.6440     6.4070    18.8640 c3         1 VI0       0.355100
      2 C02          4.5310     6.4630    20.3860 ca         1 VI0      -0.100300
      3 C05          3.6350     5.5820    21.0110 ca         1 VI0      -0.061300
      4 C06          5.2790     7.3420    21.1650 ca         1 VI0      -0.087000
      5 C07          5.7500     8.5760    18.1270 ca         1 VI0      -0.097500
      6 C10          2.8110     4.6320    20.1800 c3         1 VI0       0.044200
      7 C11          3.5000     5.6140    22.3970 ca         1 VI0      -0.107000
      8 C13          6.8560     9.2750    17.6560 ca         1 VI0      -0.110000
      9 C15          1.8120     5.3450    19.3000 ca         1 VI0      -0.301300
     10 C17          4.2450     6.4990    23.1690 ca         1 VI0      -0.099000
     11 C18          8.0400     8.6030    17.3700 ca         1 VI0      -0.101000
     12 C19          0.4710     5.0290    19.3450 ca         1 VI0       0.168900
     13 C20         -0.0520     6.5590    17.7670 ca         1 VI0       0.395900
     14 C03          5.8120     7.1940    18.3130 ca         1 VI0      -0.106300
     15 N04          3.4040     6.8660    18.2250 nu         1 VI0      -0.939100
     16 C08          7.0010     6.5280    18.0210 ca         1 VI0      -0.097500
     17 C09          2.1520     6.3830    18.3940 ca         1 VI0       0.437900
     18 C12          5.1380     7.3650    22.5500 ca         1 VI0      -0.115000
     19 C14          8.1100     7.2260    17.5560 ca         1 VI0      -0.110000
     20 N16          1.2130     6.9690    17.6340 nb         1 VI0      -0.337000
     21 N21         -0.4850     5.6040    18.6030 nb         1 VI0      -0.273000
     22 N22         -0.9930     7.2030    17.0130 nv         1 VI0      -1.049900
     23 H1           4.8150     5.3630    18.5880 h1         1 VI0       0.058700
     24 H23          5.9820     8.0130    20.6940 ha         1 VI0       0.120000
     25 H24          4.8410     9.1160    18.3620 ha         1 VI0       0.119500
     26 H27          3.4710     4.0040    19.5730 hc         1 VI0       0.049200
     27 H26          2.2650     3.9550    20.8380 hc         1 VI0       0.049200
     28 H28          2.8040     4.9340    22.8740 ha         1 VI0       0.113000
     29 H30          6.7920    10.3470    17.5170 ha         1 VI0       0.116500
     30 H32          4.1310     6.5080    24.2450 ha         1 VI0       0.114000
     31 H33          8.9010     9.1480    17.0040 ha         1 VI0       0.116000
     32 H34          0.1400     4.2510    20.0270 h4         1 VI0       0.013100
     33 H2           3.4920     7.5560    17.4960 hn         1 VI0       0.504000
     34 H25          7.0570     5.4550    18.1610 ha         1 VI0       0.119500
     35 H29          5.7280     8.0560    23.1390 ha         1 VI0       0.114000
     36 H31          9.0250     6.6930    17.3320 ha         1 VI0       0.116500
     37 H35         -0.6620     7.7210    16.2160 hn         1 VI0       0.482500
     38 H36         -1.8810     6.7400    16.9060 hn         1 VI0       0.482500
@<TRIPOS>BOND
     1     1     2 1   
     2     1    14 1   
     3     1    15 1   
     4     1    23 1   
     5     2     3 ar  
     6     2     4 ar  
     7     3     6 1   
     8     3     7 ar  
     9     4    18 ar  
    10     4    24 1   
    11     5     8 ar  
    12     5    14 ar  
    13     5    25 1   
    14     6     9 1   
    15     6    26 1   
    16     6    27 1   
    17     7    10 ar  
    18     7    28 1   
    19     8    11 ar  
    20     8    29 1   
    21     9    12 ar  
    22     9    17 ar  
    23    10    18 ar  
    24    10    30 1   
    25    11    19 ar  
    26    11    31 1   
    27    12    21 ar  
    28    12    32 1   
    29    13    20 ar  
    30    13    21 ar  
    31    13    22 1   
    32    14    16 ar  
    33    15    17 1   
    34    15    33 1   
    35    16    19 ar  
    36    16    34 1   
    37    17    20 ar  
    38    18    35 1   
    39    19    36 1   
    40    22    37 1   
    41    22    38 1   
@<TRIPOS>SUBSTRUCTURE
     1 VI0         1 TEMP              0 ****  ****    0 ROOT
