@<TRIPOS>MOLECULE
VI1
   53    55     1     0     0
SMALL
No Charge or Current Charge


@<TRIPOS>ATOM
      1 C2          -2.0280    10.7000    14.0940 cc         1 VI1      -0.019300
      2 C3          -0.8700     9.8310    14.1500 cc         1 VI1      -0.258600
      3 C4          -0.0670    10.1080    15.2520 cd         1 VI1       0.044600
      4 C5          -0.5560     8.7730    13.1210 c          1 VI1       0.644700
      5 C6           0.9370     6.9860    12.4570 c3         1 VI1       0.164900
      6 C7           1.9920     9.5930    16.5950 c          1 VI1       0.600100
      7 C10          4.3680     6.6630    17.7680 c6         1 VI1      -0.070400
      8 C11          5.7250     7.3860    17.5820 c6         1 VI1      -0.078400
      9 C12          5.7210     8.2770    16.3150 c6         1 VI1      -0.060400
     10 C14          4.5560    10.2030    15.0770 c          1 VI1       0.719000
     11 C16         -3.0080    12.7760    15.2820 c3         1 VI1       0.012900
     12 C18         -2.8790    11.5720    11.8290 c3         1 VI1      -0.065400
     13 C19         -3.1300    13.0850    12.0820 c3         1 VI1      -0.065400
     14 C20         -2.1180    13.7960    13.0220 c3         1 VI1      -0.068400
     15 O4           4.7820    11.3970    15.2010 o          1 VI1      -0.718000
     16 O5           4.2780     9.6700    14.0130 o          1 VI1      -0.718000
     17 C13          4.5690     9.3240    16.3520 c6         1 VI1      -0.188700
     18 C9           3.1980     7.6740    17.8370 c6         1 VI1      -0.064400
     19 C8           3.1960     8.6200    16.6050 c6         1 VI1      -0.114700
     20 O3           1.8500    10.4370    17.4700 o          1 VI1      -0.627100
     21 N1           1.1080     9.4270    15.5460 ns         1 VI1      -0.377100
     22 S1          -0.6900    11.4550    16.2220 ss         1 VI1       0.248000
     23 C1          -2.0420    11.6320    15.1060 cd         1 VI1      -0.291300
     24 C17         -2.5880    14.0320    14.4850 c3         1 VI1      -0.066400
     25 C15         -3.1190    10.6390    13.0380 c3         1 VI1      -0.004100
     26 O2          -1.1990     8.5990    12.0950 o          1 VI1      -0.520000
     27 O1           0.5520     8.0070    13.3970 os         1 VI1      -0.427100
     28 H1           1.8330     6.4600    12.8110 h1         1 VI1       0.042033
     29 H2           0.1350     6.2460    12.3330 h1         1 VI1       0.042033
     30 H3           1.1640     7.4230    11.4760 h1         1 VI1       0.042033
     31 H4           4.2060     5.9630    16.9360 hc         1 VI1       0.024700
     32 H5           4.3910     6.0580    18.6840 hc         1 VI1       0.024700
     33 H6           6.5330     6.6450    17.5110 hc         1 VI1       0.025200
     34 H7           5.9430     8.0000    18.4670 hc         1 VI1       0.025200
     35 H8           5.6220     7.6420    15.4230 hc         1 VI1       0.045200
     36 H9           6.6870     8.7910    16.2220 hc         1 VI1       0.045200
     37 H10         -3.0810    13.0460    16.3430 hc         1 VI1       0.036200
     38 H11         -4.0230    12.4870    14.9890 hc         1 VI1       0.036200
     39 H12         -3.5510    11.2540    11.0230 hc         1 VI1       0.044200
     40 H13         -1.8590    11.4250    11.4510 hc         1 VI1       0.044200
     41 H14         -3.0860    13.5860    11.1070 hc         1 VI1       0.022200
     42 H15         -4.1530    13.2360    12.4490 hc         1 VI1       0.022200
     43 H16         -1.1650    13.2530    13.0190 hc         1 VI1       0.042700
     44 H17         -1.8940    14.7800    12.5920 hc         1 VI1       0.042700
     45 H19          4.7710     9.9960    17.1980 hc         1 VI1       0.049700
     46 H20          3.2810     8.2670    18.7590 hc         1 VI1       0.039700
     47 H21          2.2440     7.1320    17.8990 hc         1 VI1       0.039700
     48 H22          3.0420     7.9610    15.7390 hc         1 VI1       0.077700
     49 H23          1.3840     8.6940    14.9020 hn         1 VI1       0.413500
     50 H24         -1.7690    14.5230    15.0240 hc         1 VI1       0.029200
     51 H25         -3.4230    14.7430    14.4840 hc         1 VI1       0.029200
     52 H26         -4.0880    10.8910    13.4810 hc         1 VI1       0.040700
     53 H27         -3.2750     9.6150    12.6880 hc         1 VI1       0.040700
@<TRIPOS>BOND
     1     1     2 1   
     2     1    23 2   
     3     1    25 1   
     4     2     3 2   
     5     2     4 1   
     6     3    21 1   
     7     3    22 1   
     8     4    26 2   
     9     4    27 1   
    10     5    27 1   
    11     5    28 1   
    12     5    29 1   
    13     5    30 1   
    14     6    19 1   
    15     6    20 2   
    16     6    21 1   
    17     7     8 1   
    18     7    18 1   
    19     7    31 1   
    20     7    32 1   
    21     8     9 1   
    22     8    33 1   
    23     8    34 1   
    24     9    17 1   
    25     9    35 1   
    26     9    36 1   
    27    10    15 1   
    28    10    16 1   
    29    10    17 1   
    30    11    23 1   
    31    11    24 1   
    32    11    37 1   
    33    11    38 1   
    34    12    13 1   
    35    12    25 1   
    36    12    39 1   
    37    12    40 1   
    38    13    14 1   
    39    13    41 1   
    40    13    42 1   
    41    14    24 1   
    42    14    43 1   
    43    14    44 1   
    44    17    19 1   
    45    17    45 1   
    46    18    19 1   
    47    18    46 1   
    48    18    47 1   
    49    19    48 1   
    50    21    49 1   
    51    22    23 1   
    52    24    50 1   
    53    24    51 1   
    54    25    52 1   
    55    25    53 1   
@<TRIPOS>SUBSTRUCTURE
     1 VI1         1 TEMP              0 ****  ****    0 ROOT
