@<TRIPOS>MOLECULE
VI1
   53    55     1     0     0
SMALL
abcg2


@<TRIPOS>ATOM
      1 C2          -1.9240    10.5690    13.8560 cc         1 VI1      -0.019300
      2 C3          -0.7800     9.6930    13.8760 cc         1 VI1      -0.258600
      3 C4          -0.1070     9.7250    15.0830 cd         1 VI1       0.044600
      4 C5          -0.3770     8.8830    12.7160 c          1 VI1       0.644700
      5 C6           0.7050     6.9070    12.0290 c3         1 VI1       0.164900
      6 C7           1.7050     9.2180    16.5970 c          1 VI1       0.600100
      7 C10          4.6380     7.4670    18.3870 c6         1 VI1      -0.070400
      8 C11          5.7840     8.1450    17.6530 c6         1 VI1      -0.078400
      9 C12          5.4520     8.3030    16.1760 c6         1 VI1      -0.060400
     10 C14          3.9390     9.1340    14.4010 c          1 VI1       0.719000
     11 C16         -3.0960    12.2710    15.3550 c3         1 VI1       0.012900
     12 C18         -2.4970    12.0140    11.8380 c3         1 VI1      -0.065400
     13 C19         -2.8000    13.3800    12.4580 c3         1 VI1      -0.065400
     14 C20         -1.9250    13.8100    13.6480 c3         1 VI1      -0.068400
     15 O4           4.6490     9.9370    13.7800 o          1 VI1      -0.718000
     16 O5           3.1140     8.3290    13.8920 o          1 VI1      -0.718000
     17 C13          4.1450     9.0740    15.9310 c6         1 VI1      -0.188700
     18 C9           3.3500     8.2540    18.2030 c6         1 VI1      -0.064400
     19 C8           2.9930     8.4230    16.7250 c6         1 VI1      -0.114700
     20 O3           1.2780     9.9510    17.4750 o          1 VI1      -0.627100
     21 N1           1.0380     9.0480    15.4240 ns         1 VI1      -0.377100
     22 S1          -0.8650    10.8160    16.1860 ss         1 VI1       0.248000
     23 C1          -2.0980    11.2090    15.0410 cd         1 VI1      -0.291300
     24 C17         -2.5730    13.6740    15.0240 c3         1 VI1      -0.066400
     25 C15         -2.8440    10.7880    12.6890 c3         1 VI1      -0.004100
     26 O2          -0.5320     9.2110    11.5630 o          1 VI1      -0.520000
     27 O1           0.1700     7.7240    13.0680 os         1 VI1      -0.427100
     28 H1           1.1410     6.0450    12.5250 h1         1 VI1       0.042033
     29 H2          -0.0740     6.5750    11.3440 h1         1 VI1       0.042033
     30 H3           1.4800     7.4290    11.4690 h1         1 VI1       0.042033
     31 H4           4.5110     6.4480    18.0050 hc         1 VI1       0.024700
     32 H5           4.8640     7.3740    19.4520 hc         1 VI1       0.024700
     33 H6           6.7090     7.5740    17.7660 hc         1 VI1       0.025200
     34 H7           5.9670     9.1300    18.0950 hc         1 VI1       0.025200
     35 H8           5.3620     7.3080    15.7240 hc         1 VI1       0.045200
     36 H9           6.2660     8.8130    15.6570 hc         1 VI1       0.045200
     37 H10         -3.3880    12.2340    16.4070 hc         1 VI1       0.036200
     38 H11         -4.0090    12.0750    14.7870 hc         1 VI1       0.036200
     39 H12         -3.0640    11.9400    10.9060 hc         1 VI1       0.044200
     40 H13         -1.4420    11.9700    11.5540 hc         1 VI1       0.044200
     41 H14         -2.6850    14.1190    11.6610 hc         1 VI1       0.022200
     42 H15         -3.8590    13.4220    12.7380 hc         1 VI1       0.022200
     43 H16         -0.9820    13.2580    13.6300 hc         1 VI1       0.042700
     44 H17         -1.6500    14.8600    13.5270 hc         1 VI1       0.042700
     45 H19          4.2840    10.0970    16.3030 hc         1 VI1       0.049700
     46 H20          3.4690     9.2380    18.6660 hc         1 VI1       0.039700
     47 H21          2.5290     7.7590    18.7260 hc         1 VI1       0.039700
     48 H22          2.8210     7.4300    16.2940 hc         1 VI1       0.077700
     49 H23          1.5900     8.5690    14.6910 hn         1 VI1       0.413500
     50 H24         -1.8440    13.9700    15.7840 hc         1 VI1       0.029200
     51 H25         -3.4060    14.3770    15.1070 hc         1 VI1       0.029200
     52 H26         -3.8680    10.8980    13.0590 hc         1 VI1       0.040700
     53 H27         -2.8560     9.9060    12.0510 hc         1 VI1       0.040700
@<TRIPOS>BOND
     1     1     2 1   
     2     1    23 2   
     3     1    25 1   
     4     2     3 2   
     5     2     4 1   
     6     3    21 1   
     7     3    22 1   
     8     4    26 2   
     9     4    27 1   
    10     5    27 1   
    11     5    28 1   
    12     5    29 1   
    13     5    30 1   
    14     6    19 1   
    15     6    20 2   
    16     6    21 1   
    17     7     8 1   
    18     7    18 1   
    19     7    31 1   
    20     7    32 1   
    21     8     9 1   
    22     8    33 1   
    23     8    34 1   
    24     9    17 1   
    25     9    35 1   
    26     9    36 1   
    27    10    15 1   
    28    10    16 1   
    29    10    17 1   
    30    11    23 1   
    31    11    24 1   
    32    11    37 1   
    33    11    38 1   
    34    12    13 1   
    35    12    25 1   
    36    12    39 1   
    37    12    40 1   
    38    13    14 1   
    39    13    41 1   
    40    13    42 1   
    41    14    24 1   
    42    14    43 1   
    43    14    44 1   
    44    17    19 1   
    45    17    45 1   
    46    18    19 1   
    47    18    46 1   
    48    18    47 1   
    49    19    48 1   
    50    21    49 1   
    51    22    23 1   
    52    24    50 1   
    53    24    51 1   
    54    25    52 1   
    55    25    53 1   
@<TRIPOS>SUBSTRUCTURE
     1 VI1         1 TEMP              0 ****  ****    0 ROOT
