@<TRIPOS>MOLECULE
VI2
   28    28     1     0     0
SMALL
No Charge or Current Charge


@<TRIPOS>ATOM
      1 N1          22.3730     6.4940   -35.0990 ns         1 VI2      -0.446900
      2 C7          22.7580     7.7010   -34.5940 cs         1 VI2       0.485400
      3 C8          23.0210     5.1960   -34.8690 c3         1 VI2       0.102000
      4 C9          24.2840     4.9950   -35.7380 c3         1 VI2       0.137600
      5 C1          18.5200     8.0630   -36.2410 ca         1 VI2      -0.054300
      6 C5          20.7820     8.8500   -35.7360 ca         1 VI2       0.030600
      7 C6          19.7310     7.9300   -35.5340 ca         1 VI2      -0.142000
      8 C4          20.5990     9.9230   -36.6240 ca         1 VI2      -0.134000
      9 C3          19.3940    10.0580   -37.3350 ca         1 VI2      -0.084000
     10 C2          18.3600     9.1270   -37.1470 ca         1 VI2      -0.118000
     11 S           24.0940     7.9260   -33.6210 s          1 VI2      -0.672400
     12 O           24.8420     3.6920   -35.5110 oh         1 VI2      -0.662000
     13 N           22.0060     8.7530   -35.0300 ns         1 VI2      -0.377100
     14 H1          21.5800     6.5170   -35.7300 hn         1 VI2       0.315500
     15 H2          22.2990     4.4010   -35.0950 h1         1 VI2       0.083200
     16 H3          23.2910     5.1120   -33.8080 h1         1 VI2       0.083200
     17 H4          25.0210     5.7720   -35.4940 h1         1 VI2       0.032700
     18 H5          24.0110     5.1130   -36.7950 h1         1 VI2       0.032700
     19 H6          19.8360     7.1250   -34.8110 ha         1 VI2       0.126000
     20 H7          21.3950    10.6480   -36.7770 ha         1 VI2       0.124000
     21 H8          19.2620    10.8850   -38.0300 ha         1 VI2       0.121000
     22 H9          17.4300     9.2380   -37.7010 ha         1 VI2       0.119000
     23 H10         25.6430     3.6180   -36.0770 ho         1 VI2       0.449000
     24 H11         22.3840     9.6490   -34.7440 hn         1 VI2       0.358500
     25 H12         17.5290     6.1800   -36.6560 hc         1 VI2       0.048033
     26 H13         17.3590     6.7260   -34.9780 hc         1 VI2       0.048033
     27 H14         16.4170     7.5010   -36.2580 hc         1 VI2       0.048033
     28 C           17.3950     7.0640   -36.0210 c3         1 VI2      -0.050800
@<TRIPOS>BOND
     1     1     2 1   
     2     1     3 1   
     3     1    14 1   
     4     2    11 2   
     5     2    13 1   
     6     3     4 1   
     7     3    15 1   
     8     3    16 1   
     9     4    12 1   
    10     4    17 1   
    11     4    18 1   
    12     5     7 ar  
    13     5    10 ar  
    14     5    28 1   
    15     6     7 ar  
    16     6     8 ar  
    17     6    13 1   
    18     7    19 1   
    19     8     9 ar  
    20     8    20 1   
    21     9    10 ar  
    22     9    21 1   
    23    10    22 1   
    24    12    23 1   
    25    13    24 1   
    26    25    28 1   
    27    26    28 1   
    28    27    28 1   
@<TRIPOS>SUBSTRUCTURE
     1 VI2         1 TEMP              0 ****  ****    0 ROOT
