@<TRIPOS>MOLECULE
VI2
   28    28     1     0     0
SMALL
abcg2


@<TRIPOS>ATOM
      1 N1          22.3480     6.5210   -35.0210 ns         1 VI2      -0.446900
      2 C7          22.6860     7.6990   -34.4860 cs         1 VI2       0.485400
      3 C8          23.0700     5.2760   -34.8410 c3         1 VI2       0.102000
      4 C9          24.1390     5.0860   -35.9080 c3         1 VI2       0.137600
      5 C1          18.5510     8.0360   -36.2320 ca         1 VI2      -0.054300
      6 C5          20.7630     8.8240   -35.6230 ca         1 VI2       0.030600
      7 C6          19.6880     7.9570   -35.4270 ca         1 VI2      -0.142000
      8 C4          20.6970     9.8050   -36.6110 ca         1 VI2      -0.134000
      9 C3          19.5580     9.9020   -37.3990 ca         1 VI2      -0.084000
     10 C2          18.4970     9.0210   -37.2190 ca         1 VI2      -0.118000
     11 S           24.0210     7.9170   -33.4560 s          1 VI2      -0.672400
     12 O           24.7880     3.8450   -35.6380 oh         1 VI2      -0.662000
     13 N           21.9120     8.7730   -34.7930 ns         1 VI2      -0.377100
     14 H1          21.5840     6.5050   -35.6810 hn         1 VI2       0.315500
     15 H2          22.3470     4.4600   -34.8960 h1         1 VI2       0.083200
     16 H3          23.5260     5.2730   -33.8530 h1         1 VI2       0.083200
     17 H4          24.8490     5.9180   -35.8650 h1         1 VI2       0.032700
     18 H5          23.6740     5.0770   -36.9000 h1         1 VI2       0.032700
     19 H6          19.7230     7.2300   -34.6250 ha         1 VI2       0.126000
     20 H7          21.5300    10.4820   -36.7510 ha         1 VI2       0.124000
     21 H8          19.5000    10.6690   -38.1610 ha         1 VI2       0.121000
     22 H9          17.6140     9.1040   -37.8420 ha         1 VI2       0.119000
     23 H10         25.4670     3.7030   -36.3080 ho         1 VI2       0.449000
     24 H11         22.3060     9.6570   -34.5070 hn         1 VI2       0.358500
     25 H12         17.5450     6.1890   -36.6690 hc         1 VI2       0.048033
     26 H13         17.3600     6.7280   -35.0030 hc         1 VI2       0.048033
     27 H14         16.4600     7.5280   -36.3040 hc         1 VI2       0.048033
     28 C           17.4130     7.0710   -36.0360 c3         1 VI2      -0.050800
@<TRIPOS>BOND
     1     1     2 1   
     2     1     3 1   
     3     1    14 1   
     4     2    11 2   
     5     2    13 1   
     6     3     4 1   
     7     3    15 1   
     8     3    16 1   
     9     4    12 1   
    10     4    17 1   
    11     4    18 1   
    12     5     7 ar  
    13     5    10 ar  
    14     5    28 1   
    15     6     7 ar  
    16     6     8 ar  
    17     6    13 1   
    18     7    19 1   
    19     8     9 ar  
    20     8    20 1   
    21     9    10 ar  
    22     9    21 1   
    23    10    22 1   
    24    12    23 1   
    25    13    24 1   
    26    25    28 1   
    27    26    28 1   
    28    27    28 1   
@<TRIPOS>SUBSTRUCTURE
     1 VI2         1 TEMP              0 ****  ****    0 ROOT
