@<TRIPOS>MOLECULE
VI3
   14    13     1     0     0
SMALL
No Charge or Current Charge


@<TRIPOS>ATOM
      1 O2           4.4250    -1.8040    20.7100 o          1 VI3      -0.545900
      2 O1           3.2720    -0.1610    19.1390 o          1 VI3      -0.545900
      3 N            7.0600     1.7870    21.3500 n8         1 VI3      -0.988200
      4 CA           6.1100     0.9660    20.5030 c3         1 VI3       0.061500
      5 C            5.9680     1.3990    18.9770 c          1 VI3       0.754000
      6 O            6.5660     0.7380    18.1320 o          1 VI3      -0.759500
      7 CB           4.7340     0.8600    21.2150 c3         1 VI3      -0.040100
      8 SG           3.6660    -0.5110    20.5510 s4         1 VI3       0.089500
      9 OXT          5.4390     2.4740    18.7080 o          1 VI3      -0.759500
     10 HA           6.5360    -0.0470    20.4900 h1         1 VI3       0.028700
     11 H7           4.1790     1.8030    21.1250 h1         1 VI3       0.017200
     12 H8           4.8840     0.6470    22.2810 h1         1 VI3       0.017200
     13 H2           7.1510     1.3460    22.2720 hn         1 VI3       0.336500
     14 H            8.0010     1.7290    20.9450 hn         1 VI3       0.336500
@<TRIPOS>BOND
     1     1     8 1   
     2     2     8 1   
     3     3     4 1   
     4     3    13 1   
     5     3    14 1   
     6     4     5 1   
     7     4     7 1   
     8     4    10 1   
     9     5     6 1   
    10     5     9 1   
    11     7     8 1   
    12     7    11 1   
    13     7    12 1   
@<TRIPOS>SUBSTRUCTURE
     1 VI3         1 TEMP              0 ****  ****    0 ROOT
