@<TRIPOS>MOLECULE
VI3
   14    13     1     0     0
SMALL
abcg2


@<TRIPOS>ATOM
      1 O2           4.4260    -1.7260    20.9760 o          1 VI3      -0.545900
      2 O1           3.5530    -0.2910    19.1130 o          1 VI3      -0.545900
      3 N            7.0000     1.6970    21.2610 n8         1 VI3      -0.988200
      4 CA           6.0640     0.8830    20.4700 c3         1 VI3       0.061500
      5 C            6.0240     1.4980    19.0480 c          1 VI3       0.754000
      6 O            6.6860     0.8990    18.1740 o          1 VI3      -0.759500
      7 CB           4.7200     0.8720    21.1760 c3         1 VI3      -0.040100
      8 SG           3.6130    -0.4900    20.6180 s4         1 VI3       0.089500
      9 OXT          5.4040     2.5700    18.9030 o          1 VI3      -0.759500
     10 HA           6.4120    -0.1550    20.3870 h1         1 VI3       0.028700
     11 H7           4.1970     1.8210    21.0360 h1         1 VI3       0.017200
     12 H8           4.8450     0.7200    22.2530 h1         1 VI3       0.017200
     13 H2           7.1340     1.2560    22.1640 hn         1 VI3       0.336500
     14 H            7.9130     1.6730    20.8190 hn         1 VI3       0.336500
@<TRIPOS>BOND
     1     1     8 1   
     2     2     8 1   
     3     3     4 1   
     4     3    13 1   
     5     3    14 1   
     6     4     5 1   
     7     4     7 1   
     8     4    10 1   
     9     5     6 1   
    10     5     9 1   
    11     7     8 1   
    12     7    11 1   
    13     7    12 1   
@<TRIPOS>SUBSTRUCTURE
     1 VI3         1 TEMP              0 ****  ****    0 ROOT
