@<TRIPOS>MOLECULE
VI5
   24    24     1     0     0
SMALL
No Charge or Current Charge


@<TRIPOS>ATOM
      1 N1          -3.3780    13.8450   -34.2670 ns         1 VI5      -0.156000
      2 C7          -0.1220    12.8880   -35.9050 ca         1 VI5       0.194000
      3 C8          -1.2540    13.6490   -35.5720 ca         1 VI5      -0.175000
      4 C1          -5.2420    15.4310   -33.9090 c3         1 VI5       0.086800
      5 C5          -0.8620    11.1080   -34.4330 ca         1 VI5      -0.057000
      6 C6           0.0780    11.6210   -35.3410 ca         1 VI5      -0.178000
      7 C4          -1.9960    11.8680   -34.0970 ca         1 VI5      -0.188000
      8 C3          -2.2070    13.1420   -34.6610 ca         1 VI5       0.008000
      9 C2          -3.9040    15.0770   -34.6430 c          1 VI5       0.598100
     10 F            0.7830    13.3820   -36.7770 f          1 VI5      -0.181000
     11 O           -3.3820    15.8200   -35.4700 o          1 VI5      -0.546100
     12 N           -5.5220    16.8920   -33.6870 n7         1 VI5      -0.842400
     13 C           -4.5670    17.6000   -32.8060 c3         1 VI5       0.140100
     14 H1          -3.9340    13.3520   -33.5800 hn         1 VI5       0.147000
     15 H2          -1.3640    14.6240   -36.0320 ha         1 VI5       0.168000
     16 H3          -6.0470    14.9810   -34.5050 h1         1 VI5       0.045200
     17 H4          -5.2370    14.9050   -32.9440 h1         1 VI5       0.045200
     18 H5          -0.7130    10.1250   -33.9900 ha         1 VI5       0.117000
     19 H6           0.9580    11.0410   -35.6060 ha         1 VI5       0.135000
     20 H7          -2.7170    11.4600   -33.3930 ha         1 VI5       0.112000
     21 H8          -6.4610    16.9820   -33.2720 hn         1 VI5       0.419000
     22 H10         -4.8500    18.6560   -32.7010 h1         1 VI5       0.036367
     23 H11         -4.5500    17.1520   -31.8030 h1         1 VI5       0.036367
     24 H12         -3.5480    17.5640   -33.2150 h1         1 VI5       0.036367
@<TRIPOS>BOND
     1     1     8 1   
     2     1     9 1   
     3     1    14 1   
     4     2     3 ar  
     5     2     6 ar  
     6     2    10 1   
     7     3     8 ar  
     8     3    15 1   
     9     4     9 1   
    10     4    12 1   
    11     4    16 1   
    12     4    17 1   
    13     5     6 ar  
    14     5     7 ar  
    15     5    18 1   
    16     6    19 1   
    17     7     8 ar  
    18     7    20 1   
    19     9    11 2   
    20    12    13 1   
    21    12    21 1   
    22    13    22 1   
    23    13    23 1   
    24    13    24 1   
@<TRIPOS>SUBSTRUCTURE
     1 VI5         1 TEMP              0 ****  ****    0 ROOT
