@<TRIPOS>MOLECULE
VI5
   24    24     1     0     0
SMALL
abcg2


@<TRIPOS>ATOM
      1 N1          -3.3270    13.8730   -34.1450 ns         1 VI5      -0.156000
      2 C7          -0.2390    12.8930   -35.9200 ca         1 VI5       0.194000
      3 C8          -1.3170    13.6780   -35.5530 ca         1 VI5      -0.175000
      4 C1          -5.1590    15.4300   -33.9030 c3         1 VI5       0.086800
      5 C5          -0.8790    11.1520   -34.4470 ca         1 VI5      -0.057000
      6 C6           0.0140    11.6390   -35.3990 ca         1 VI5      -0.178000
      7 C4          -1.9740    11.9020   -34.0480 ca         1 VI5      -0.188000
      8 C3          -2.2030    13.1700   -34.5990 ca         1 VI5       0.008000
      9 C2          -3.8280    15.0700   -34.5660 c          1 VI5       0.598100
     10 F            0.6170    13.3960   -36.8480 f          1 VI5      -0.181000
     11 O           -3.2950    15.7740   -35.4120 o          1 VI5      -0.546100
     12 N           -5.3720    16.8600   -33.8410 n7         1 VI5      -0.842400
     13 C           -4.5960    17.5060   -32.7860 c3         1 VI5       0.140100
     14 H1          -3.8580    13.4030   -33.4260 hn         1 VI5       0.147000
     15 H2          -1.4610    14.6500   -35.9920 ha         1 VI5       0.168000
     16 H3          -5.9410    14.9790   -34.5210 h1         1 VI5       0.045200
     17 H4          -5.2080    14.9440   -32.9160 h1         1 VI5       0.045200
     18 H5          -0.7170    10.1740   -34.0130 ha         1 VI5       0.117000
     19 H6           0.8740    11.0710   -35.7240 ha         1 VI5       0.135000
     20 H7          -2.6620    11.5110   -33.3090 ha         1 VI5       0.112000
     21 H8          -6.3580    17.0370   -33.6960 hn         1 VI5       0.419000
     22 H10         -4.8620    18.5620   -32.7330 h1         1 VI5       0.036367
     23 H11         -4.7560    17.0540   -31.7950 h1         1 VI5       0.036367
     24 H12         -3.5310    17.4380   -33.0180 h1         1 VI5       0.036367
@<TRIPOS>BOND
     1     1     8 1   
     2     1     9 1   
     3     1    14 1   
     4     2     3 ar  
     5     2     6 ar  
     6     2    10 1   
     7     3     8 ar  
     8     3    15 1   
     9     4     9 1   
    10     4    12 1   
    11     4    16 1   
    12     4    17 1   
    13     5     6 ar  
    14     5     7 ar  
    15     5    18 1   
    16     6    19 1   
    17     7     8 ar  
    18     7    20 1   
    19     9    11 2   
    20    12    13 1   
    21    12    21 1   
    22    13    22 1   
    23    13    23 1   
    24    13    24 1   
@<TRIPOS>SUBSTRUCTURE
     1 VI5         1 TEMP              0 ****  ****    0 ROOT
