@<TRIPOS>MOLECULE
VI8
   28    29     1     0     0
SMALL
No Charge or Current Charge


@<TRIPOS>ATOM
      1 N1          27.5040    11.8610    -5.0570 nb         1 VI8      -0.672000
      2 C7          26.3160    12.1980    -7.1520 ca         1 VI8      -0.135300
      3 C8          26.0000    10.8280    -7.2150 ca         1 VI8      -0.044000
      4 C9          26.4530     9.9910    -6.1820 ca         1 VI8      -0.166000
      5 O1          30.3700    15.8490    -7.5110 o          1 VI8      -0.722000
      6 C1          30.7660    13.2180   -10.0040 ca         1 VI8      -0.125000
      7 C5          28.6240    12.2030   -10.5520 ca         1 VI8      -0.207000
      8 C6          25.8540    13.1610    -8.2320 c3         1 VI8       0.283100
      9 C4          27.9830    13.0520    -9.6390 ca         1 VI8       0.266000
     10 C3          28.7370    13.9930    -8.9140 ca         1 VI8      -0.145000
     11 C2          30.1400    14.0910    -9.0820 ca         1 VI8      -0.095600
     12 C12         30.9530    15.1100    -8.2930 c          1 VI8       0.702600
     13 O           32.1630    15.1590    -8.4680 o          1 VI8      -0.722000
     14 C           30.0140    12.2830   -10.7340 ca         1 VI8      -0.111000
     15 N           26.6020    12.9430    -9.4800 nu         1 VI8      -0.989200
     16 C11         27.0680    12.6650    -6.0570 ca         1 VI8       0.338900
     17 C10         27.1980    10.5450    -5.1280 ca         1 VI8       0.325900
     18 H1          25.4210    10.4240    -8.0440 ha         1 VI8       0.133000
     19 H2          26.2330     8.9270    -6.1930 ha         1 VI8       0.113000
     20 H4          31.8420    13.2650   -10.1600 ha         1 VI8       0.128000
     21 H5          28.0500    11.4760   -11.1190 ha         1 VI8       0.078000
     22 H6          25.9810    14.1970    -7.8870 h1         1 VI8       0.036700
     23 H7          24.7810    13.0070    -8.4110 h1         1 VI8       0.036700
     24 H8          28.2320    14.6570    -8.2200 ha         1 VI8       0.134000
     25 H9          30.5080    11.6210   -11.4410 ha         1 VI8       0.082000
     26 H10         26.1570    12.3070   -10.1440 hn         1 VI8       0.457000
     27 H11         27.3300    13.7190    -5.9720 h4         1 VI8       0.011100
     28 H12         27.5600     9.9180    -4.3140 h4         1 VI8       0.007100
@<TRIPOS>BOND
     1     1    16 ar  
     2     1    17 ar  
     3     2     3 ar  
     4     2     8 1   
     5     2    16 ar  
     6     3     4 ar  
     7     3    18 1   
     8     4    17 ar  
     9     4    19 1   
    10     5    12 1   
    11     6    11 ar  
    12     6    14 ar  
    13     6    20 1   
    14     7     9 ar  
    15     7    14 ar  
    16     7    21 1   
    17     8    15 1   
    18     8    22 1   
    19     8    23 1   
    20     9    10 ar  
    21     9    15 1   
    22    10    11 ar  
    23    10    24 1   
    24    11    12 1   
    25    12    13 1   
    26    14    25 1   
    27    15    26 1   
    28    16    27 1   
    29    17    28 1   
@<TRIPOS>SUBSTRUCTURE
     1 VI8         1 TEMP              0 ****  ****    0 ROOT
