@<TRIPOS>MOLECULE
VI8
   28    29     1     0     0
SMALL
abcg2


@<TRIPOS>ATOM
      1 N1          26.3690    12.3060    -4.6330 nb         1 VI8      -0.672000
      2 C7          26.3250    12.3100    -7.0430 ca         1 VI8      -0.135300
      3 C8          26.8270    11.0150    -7.0580 ca         1 VI8      -0.044000
      4 C9          27.0930    10.3770    -5.8540 ca         1 VI8      -0.166000
      5 O1          30.6010    14.4660    -6.9420 o          1 VI8      -0.722000
      6 C1          30.6690    13.2970   -10.3990 ca         1 VI8      -0.125000
      7 C5          28.4720    12.5390   -11.0610 ca         1 VI8      -0.207000
      8 C6          25.9850    13.0700    -8.3100 c3         1 VI8       0.283100
      9 C4          27.9670    12.8370    -9.7830 ca         1 VI8       0.266000
     10 C3          28.8430    13.3720    -8.8290 ca         1 VI8      -0.145000
     11 C2          30.1860    13.6000    -9.1260 ca         1 VI8      -0.095600
     12 C12         31.1160    14.1710    -8.0520 c          1 VI8       0.702600
     13 O           32.3300    14.3020    -8.3570 o          1 VI8      -0.722000
     14 C           29.8050    12.7720   -11.3570 ca         1 VI8      -0.111000
     15 N           26.6420    12.5680    -9.4950 nu         1 VI8      -0.989200
     16 C11         26.1230    12.9060    -5.8000 ca         1 VI8       0.338900
     17 C10         26.8480    11.0570    -4.6680 ca         1 VI8       0.325900
     18 H1          27.0130    10.5230    -8.0040 ha         1 VI8       0.133000
     19 H2          27.4880     9.3700    -5.8310 ha         1 VI8       0.113000
     20 H4          31.7110    13.4750   -10.6270 ha         1 VI8       0.128000
     21 H5          27.8050    12.1280   -11.8110 ha         1 VI8       0.078000
     22 H6          26.2040    14.1330    -8.1490 h1         1 VI8       0.036700
     23 H7          24.9100    12.9970    -8.4840 h1         1 VI8       0.036700
     24 H8          28.4950    13.6160    -7.8370 ha         1 VI8       0.134000
     25 H9          30.1740    12.5410   -12.3490 ha         1 VI8       0.082000
     26 H10         26.0460    12.4080   -10.2890 hn         1 VI8       0.457000
     27 H11         25.7480    13.9250    -5.7470 h4         1 VI8       0.011100
     28 H12         27.0470    10.5870    -3.7110 h4         1 VI8       0.007100
@<TRIPOS>BOND
     1     1    16 ar  
     2     1    17 ar  
     3     2     3 ar  
     4     2     8 1   
     5     2    16 ar  
     6     3     4 ar  
     7     3    18 1   
     8     4    17 ar  
     9     4    19 1   
    10     5    12 1   
    11     6    11 ar  
    12     6    14 ar  
    13     6    20 1   
    14     7     9 ar  
    15     7    14 ar  
    16     7    21 1   
    17     8    15 1   
    18     8    22 1   
    19     8    23 1   
    20     9    10 ar  
    21     9    15 1   
    22    10    11 ar  
    23    10    24 1   
    24    11    12 1   
    25    12    13 1   
    26    14    25 1   
    27    15    26 1   
    28    16    27 1   
    29    17    28 1   
@<TRIPOS>SUBSTRUCTURE
     1 VI8         1 TEMP              0 ****  ****    0 ROOT
