@<TRIPOS>MOLECULE
VI9
   44    47     1     0     0
SMALL
abcg2


@<TRIPOS>ATOM
      1 C01         -0.0000    14.2290   -36.8790 cc         1 VI9      -0.277300
      2 C02          0.5710    14.8990   -37.9130 cd         1 VI9       0.002700
      3 C04          0.6290    13.3450   -35.8540 c3         1 VI9      -0.008800
      4 C06         -1.6950    15.5000   -38.1770 cc         1 VI9       0.045600
      5 C07         -0.4100    15.6270   -38.6840 cd         1 VI9      -0.345500
      6 C11         -0.3090    17.6560   -41.5030 cc         1 VI9       0.457300
      7 C15          3.0410    15.0200   -37.1170 cx         1 VI9      -0.125900
      8 C16         -0.8970    18.5890   -42.5120 c3         1 VI9       0.305700
      9 C17         -4.0810    15.9290   -38.1780 c          1 VI9       0.636300
     10 C19         -5.1290    16.6190   -38.9230 ce         1 VI9      -0.300400
     11 C20         -4.8960    17.4200   -40.1860 c5         1 VI9      -0.028200
     12 C21         -6.2400    18.1350   -40.3850 c5         1 VI9      -0.081400
     13 C22         -7.2610    17.2860   -39.6170 c5         1 VI9      -0.066200
     14 C23         -6.4340    16.5410   -38.6100 cf         1 VI9      -0.007400
     15 C24         -7.1210    15.8060   -37.4840 c          1 VI9       0.724200
     16 C03          2.0240    14.8970   -38.2150 cx         1 VI9      -0.062400
     17 S05         -1.7170    14.4880   -36.7920 ss         1 VI9       0.338000
     18 N08         -2.8170    16.0750   -38.6950 ns         1 VI9      -0.374100
     19 C09         -0.1730    16.4090   -39.8570 cd         1 VI9       0.632500
     20 N10         -1.0440    17.1470   -40.4960 nc         1 VI9      -0.764000
     21 N12          0.9260    17.2830   -41.5270 nd         1 VI9      -0.361300
     22 O13          1.0200    16.4560   -40.4450 os         1 VI9      -0.074700
     23 C14          2.8280    16.1560   -38.0600 cx         1 VI9      -0.125900
     24 O18         -4.2580    15.2590   -37.1710 o          1 VI9      -0.546100
     25 O25         -7.5080    14.6580   -37.7570 o          1 VI9      -0.698500
     26 O26         -7.2900    16.4610   -36.4430 o          1 VI9      -0.698500
     27 F27          0.0400    19.0940   -43.3050 f          1 VI9      -0.097333
     28 F28         -1.7900    17.9560   -43.2710 f          1 VI9      -0.097333
     29 F29         -1.5230    19.5930   -41.9020 f          1 VI9      -0.097333
     30 H33         -0.0570    12.5630   -35.5300 hc         1 VI9       0.038700
     31 H32          1.5160    12.8580   -36.2530 hc         1 VI9       0.038700
     32 H31          0.9280    13.9030   -34.9640 hc         1 VI9       0.038700
     33 H38          2.6890    15.1400   -36.1010 hc         1 VI9       0.070200
     34 H37          3.9470    14.4350   -37.2050 hc         1 VI9       0.070200
     35 H40         -4.0740    18.1360   -40.1090 hc         1 VI9       0.032200
     36 H39         -4.6620    16.7590   -41.0280 hc         1 VI9       0.032200
     37 H42         -6.1890    19.1300   -39.9420 hc         1 VI9       0.031200
     38 H41         -6.4980    18.2590   -41.4360 hc         1 VI9       0.031200
     39 H44         -8.0470    17.8820   -39.1480 hc         1 VI9       0.061700
     40 H43         -7.7680    16.5630   -40.2650 hc         1 VI9       0.061700
     41 H30          2.3130    14.2680   -39.0520 hc         1 VI9       0.086700
     42 H34         -2.6660    16.6580   -39.5130 hn         1 VI9       0.365500
     43 H35          3.5840    16.3640   -38.8050 hc         1 VI9       0.070200
     44 H36          2.3170    17.0340   -37.6840 hc         1 VI9       0.070200
@<TRIPOS>BOND
     1     1     2 2   
     2     1     3 1   
     3     1    17 1   
     4     2     5 1   
     5     2    16 1   
     6     3    30 1   
     7     3    31 1   
     8     3    32 1   
     9     4     5 2   
    10     4    17 1   
    11     4    18 1   
    12     5    19 1   
    13     6     8 1   
    14     6    20 1   
    15     6    21 2   
    16     7    16 1   
    17     7    23 1   
    18     7    33 1   
    19     7    34 1   
    20     8    27 1   
    21     8    28 1   
    22     8    29 1   
    23     9    10 1   
    24     9    18 1   
    25     9    24 2   
    26    10    11 1   
    27    10    14 2   
    28    11    12 1   
    29    11    35 1   
    30    11    36 1   
    31    12    13 1   
    32    12    37 1   
    33    12    38 1   
    34    13    14 1   
    35    13    39 1   
    36    13    40 1   
    37    14    15 1   
    38    15    25 1   
    39    15    26 1   
    40    16    23 1   
    41    16    41 1   
    42    18    42 1   
    43    19    20 2   
    44    19    22 1   
    45    21    22 1   
    46    23    43 1   
    47    23    44 1   
@<TRIPOS>SUBSTRUCTURE
     1 VI9         1 TEMP              0 ****  ****    0 ROOT
