@<TRIPOS>MOLECULE
VI9
   44    47     1     0     0
SMALL
No Charge or Current Charge


@<TRIPOS>ATOM
      1 C01          0.1840    14.2320   -36.6980 cc         1 VI9      -0.277300
      2 C02          0.6280    14.9300   -37.8020 cd         1 VI9       0.002700
      3 C04          0.9740    13.3920   -35.7240 c3         1 VI9      -0.008800
      4 C06         -1.6870    15.3770   -37.9470 cc         1 VI9       0.045600
      5 C07         -0.4430    15.5560   -38.5370 cd         1 VI9      -0.345500
      6 C11         -0.6010    17.3840   -41.5510 cc         1 VI9       0.457300
      7 C15          3.1530    15.2990   -37.1630 cx         1 VI9      -0.125900
      8 C16         -1.3620    18.1730   -42.6180 c3         1 VI9       0.305700
      9 C17         -4.1640    15.7900   -38.0210 c          1 VI9       0.636300
     10 C19         -5.1940    16.5130   -38.8630 ce         1 VI9      -0.300400
     11 C20         -4.6430    17.4900   -39.9170 c5         1 VI9      -0.028200
     12 C21         -5.8410    18.4580   -40.0870 c5         1 VI9      -0.081400
     13 C22         -7.0470    17.5050   -39.9260 c5         1 VI9      -0.066200
     14 C23         -6.5710    16.4910   -38.8650 cf         1 VI9      -0.007400
     15 C24         -7.5780    15.6960   -38.0460 c          1 VI9       0.724200
     16 C03          2.0700    15.0230   -38.1890 cx         1 VI9      -0.062400
     17 S05         -1.5550    14.3950   -36.4850 ss         1 VI9       0.338000
     18 N08         -2.8640    15.9010   -38.4710 ns         1 VI9      -0.374100
     19 C09         -0.2800    16.2880   -39.7900 cd         1 VI9       0.632500
     20 N10         -1.2520    16.8810   -40.4570 nc         1 VI9      -0.764000
     21 N12          0.6970    17.1360   -41.6120 nd         1 VI9      -0.361300
     22 O13          0.9200    16.3930   -40.4310 os         1 VI9      -0.074700
     23 C14          2.7920    16.3560   -38.1710 cx         1 VI9      -0.125900
     24 O18         -4.4410    15.1530   -37.0190 o          1 VI9      -0.546100
     25 O25         -8.7670    15.9210   -38.2340 o          1 VI9      -0.698500
     26 O26         -7.2020    14.8370   -37.2630 o          1 VI9      -0.698500
     27 F27         -0.5420    18.6980   -43.5610 f          1 VI9      -0.097333
     28 F28         -2.2600    17.3950   -43.2680 f          1 VI9      -0.097333
     29 F29         -2.0520    19.2080   -42.0800 f          1 VI9      -0.097333
     30 H33          0.3440    12.6180   -35.2700 hc         1 VI9       0.038700
     31 H32          1.8100    12.8850   -36.2200 hc         1 VI9       0.038700
     32 H31          1.3780    14.0090   -34.9130 hc         1 VI9       0.038700
     33 H38          2.8650    15.4880   -36.1330 hc         1 VI9       0.070200
     34 H37          4.1040    14.7860   -37.2830 hc         1 VI9       0.070200
     35 H40         -3.7560    18.0450   -39.5920 hc         1 VI9       0.032200
     36 H39         -4.4010    16.9730   -40.8540 hc         1 VI9       0.032200
     37 H42         -5.8400    19.2200   -39.2980 hc         1 VI9       0.031200
     38 H41         -5.8340    18.9800   -41.0500 hc         1 VI9       0.031200
     39 H44         -7.9470    18.0500   -39.6160 hc         1 VI9       0.061700
     40 H43         -7.2840    16.9950   -40.8670 hc         1 VI9       0.061700
     41 H30          2.3320    14.3350   -38.9900 hc         1 VI9       0.086700
     42 H34         -2.7680    16.4420   -39.3250 hn         1 VI9       0.365500
     43 H35          3.5010    16.5590   -38.9700 hc         1 VI9       0.070200
     44 H36          2.2440    17.2250   -37.8150 hc         1 VI9       0.070200
@<TRIPOS>BOND
     1     1     2 2   
     2     1     3 1   
     3     1    17 1   
     4     2     5 1   
     5     2    16 1   
     6     3    30 1   
     7     3    31 1   
     8     3    32 1   
     9     4     5 2   
    10     4    17 1   
    11     4    18 1   
    12     5    19 1   
    13     6     8 1   
    14     6    20 1   
    15     6    21 2   
    16     7    16 1   
    17     7    23 1   
    18     7    33 1   
    19     7    34 1   
    20     8    27 1   
    21     8    28 1   
    22     8    29 1   
    23     9    10 1   
    24     9    18 1   
    25     9    24 2   
    26    10    11 1   
    27    10    14 2   
    28    11    12 1   
    29    11    35 1   
    30    11    36 1   
    31    12    13 1   
    32    12    37 1   
    33    12    38 1   
    34    13    14 1   
    35    13    39 1   
    36    13    40 1   
    37    14    15 1   
    38    15    25 1   
    39    15    26 1   
    40    16    23 1   
    41    16    41 1   
    42    18    42 1   
    43    19    20 2   
    44    19    22 1   
    45    21    22 1   
    46    23    43 1   
    47    23    44 1   
@<TRIPOS>SUBSTRUCTURE
     1 VI9         1 TEMP              0 ****  ****    0 ROOT
