@<TRIPOS>MOLECULE
VIA
   63    66     1     0     0
SMALL
abcg2


@<TRIPOS>ATOM
      1 C34          2.3390     3.3920     4.8510 c3         1 VIA      -0.089100
      2 C33          1.4010     2.1960     4.7950 c3         1 VIA      -0.075400
      3 C32         -0.0010     2.5730     4.3090 c3         1 VIA      -0.096700
      4 C30         -0.8900     1.3850     4.1890 cc         1 VIA       0.277300
      5 N29         -1.8380     1.0990     5.0630 nd         1 VIA      -0.492800
      6 N28         -2.4020    -0.0480     4.6990 na         1 VIA       0.170800
      7 C31         -3.5320    -0.5690     5.4340 c3         1 VIA       0.072900
      8 C24         -1.8370    -0.5240     3.5720 cd         1 VIA      -0.262600
      9 C23         -2.0810    -1.7140     2.8050 c          1 VIA       0.603600
     10 O27         -2.9010    -2.5900     3.0100 o          1 VIA      -0.540000
     11 N22         -1.2020    -1.7630     1.7340 ns         1 VIA      -0.422400
     12 C21         -0.2520    -0.8230     1.4180 cd         1 VIA       0.528500
     13 N26         -0.0470     0.2390     2.1120 nc         1 VIA      -0.545100
     14 C25         -0.8460     0.3740     3.2050 cc         1 VIA       0.070400
     15 C9           0.5180    -1.0810     0.1830 ca         1 VIA      -0.208900
     16 C8          -0.1590    -1.3280    -1.0000 ca         1 VIA       0.041000
     17 C7           0.5440    -1.5600    -2.1750 ca         1 VIA      -0.361500
     18 C6           1.9320    -1.5670    -2.1660 ca         1 VIA       0.046000
     19 C5           2.6180    -1.3300    -0.9900 ca         1 VIA      -0.238000
     20 C4           1.9260    -1.0800     0.1970 ca         1 VIA       0.250100
     21 O3           2.5140    -0.8640     1.3660 os         1 VIA      -0.319100
     22 C2           3.9380    -0.8190     1.4500 c3         1 VIA       0.163600
     23 C1           4.3040    -0.4720     2.8720 c3         1 VIA      -0.097100
     24 S10         -0.3330    -1.7720    -3.6920 sy         1 VIA       1.158600
     25 O11          0.4950    -2.5710    -4.5800 o          1 VIA      -0.536500
     26 O12         -1.6810    -2.2110    -3.3750 o          1 VIA      -0.536500
     27 N14         -0.4640    -0.2710    -4.3770 n3         1 VIA      -0.708500
     28 C19          0.7800     0.3490    -4.8380 c6         1 VIA       0.187300
     29 C18          0.4430     1.5080    -5.7560 c6         1 VIA       0.164800
     30 N17         -0.4020     2.4700    -5.0800 n3         1 VIA      -0.717600
     31 C20         -0.6620     3.6270    -5.9070 c3         1 VIA       0.153100
     32 C16         -1.6280     1.8400    -4.6410 c6         1 VIA       0.164800
     33 C15         -1.3390     0.6870    -3.6980 c6         1 VIA       0.187300
     34 H341         3.3290     3.1020     5.2020 hc         1 VIA       0.031367
     35 H342         2.4570     3.8470     3.8660 hc         1 VIA       0.031367
     36 H343         1.9610     4.1630     5.5260 hc         1 VIA       0.031367
     37 H331         1.8150     1.4330     4.1310 hc         1 VIA       0.046200
     38 H332         1.3240     1.7350     5.7830 hc         1 VIA       0.046200
     39 H321        -0.4500     3.2970     4.9930 hc         1 VIA       0.057700
     40 H322         0.0760     3.0630     3.3340 hc         1 VIA       0.057700
     41 H311        -4.4690    -0.1980     5.0210 h1         1 VIA       0.066033
     42 H312        -3.5310    -1.6530     5.3890 h1         1 VIA       0.066033
     43 H313        -3.4460    -0.2540     6.4690 h1         1 VIA       0.066033
     44 H22         -1.2610    -2.5910     1.1540 hn         1 VIA       0.335500
     45 H8          -1.2420    -1.3270    -1.0010 ha         1 VIA       0.142000
     46 H6           2.4940    -1.7660    -3.0690 ha         1 VIA       0.135000
     47 H5           3.6980    -1.3530    -1.0110 ha         1 VIA       0.127000
     48 H21          4.3610    -1.7870     1.1650 h1         1 VIA       0.040200
     49 H22A         4.3290    -0.0650     0.7600 h1         1 VIA       0.040200
     50 H11          5.3890    -0.4320     2.9630 hc         1 VIA       0.053700
     51 H12          3.9060     0.5020     3.1560 hc         1 VIA       0.053700
     52 H13          3.9350    -1.2200     3.5740 hc         1 VIA       0.053700
     53 H191         1.3720     0.7160    -3.9900 h1         1 VIA       0.061200
     54 H192         1.3760    -0.3780    -5.3860 h1         1 VIA       0.061200
     55 H181         1.3770     1.9910    -6.0500 h1         1 VIA       0.044950
     56 H182        -0.0280     1.1190    -6.6750 h1         1 VIA       0.044950
     57 H201        -1.2590     4.3530    -5.3550 h1         1 VIA       0.034033
     58 H202         0.2780     4.1050    -6.1850 h1         1 VIA       0.034033
     59 H203        -1.2020     3.3830    -6.8350 h1         1 VIA       0.034033
     60 H161        -2.2370     2.5720    -4.1060 h1         1 VIA       0.044950
     61 H162        -2.2300     1.4690    -5.4880 h1         1 VIA       0.044950
     62 H151        -2.2780     0.2070    -3.4300 h1         1 VIA       0.061200
     63 H152        -0.8690     1.0670    -2.7820 h1         1 VIA       0.061200
@<TRIPOS>BOND
     1     1     2 1   
     2     1    34 1   
     3     1    35 1   
     4     1    36 1   
     5     2     3 1   
     6     2    37 1   
     7     2    38 1   
     8     3     4 1   
     9     3    39 1   
    10     3    40 1   
    11     4     5 2   
    12     4    14 1   
    13     5     6 1   
    14     6     7 1   
    15     6     8 1   
    16     7    41 1   
    17     7    42 1   
    18     7    43 1   
    19     8     9 1   
    20     8    14 2   
    21     9    10 2   
    22     9    11 1   
    23    11    12 1   
    24    11    44 1   
    25    12    13 2   
    26    12    15 1   
    27    13    14 1   
    28    15    16 ar  
    29    15    20 ar  
    30    16    17 ar  
    31    16    45 1   
    32    17    18 ar  
    33    17    24 1   
    34    18    19 ar  
    35    18    46 1   
    36    19    20 ar  
    37    19    47 1   
    38    20    21 1   
    39    21    22 1   
    40    22    23 1   
    41    22    48 1   
    42    22    49 1   
    43    23    50 1   
    44    23    51 1   
    45    23    52 1   
    46    24    25 2   
    47    24    26 2   
    48    24    27 1   
    49    27    28 1   
    50    27    33 1   
    51    28    29 1   
    52    28    53 1   
    53    28    54 1   
    54    29    30 1   
    55    29    55 1   
    56    29    56 1   
    57    30    31 1   
    58    30    32 1   
    59    31    57 1   
    60    31    58 1   
    61    31    59 1   
    62    32    33 1   
    63    32    60 1   
    64    32    61 1   
    65    33    62 1   
    66    33    63 1   
@<TRIPOS>SUBSTRUCTURE
     1 VIA         1 TEMP              0 ****  ****    0 ROOT
