@<TRIPOS>MOLECULE
VIA
   63    66     1     0     0
SMALL
No Charge or Current Charge


@<TRIPOS>ATOM
      1 C34          2.3410     3.5580     4.4870 c3         1 VIA      -0.089100
      2 C33          1.3840     2.3530     4.5750 c3         1 VIA      -0.075400
      3 C32         -0.0180     2.6450     3.9980 c3         1 VIA      -0.096700
      4 C30         -0.9330     1.4490     4.0540 cc         1 VIA       0.277300
      5 N29         -1.8460     1.2680     4.9940 nd         1 VIA      -0.492800
      6 N28         -2.4150     0.0440     4.6400 na         1 VIA       0.170800
      7 C31         -3.4970    -0.5450     5.4420 c3         1 VIA       0.072900
      8 C24         -1.8350    -0.4980     3.4900 cd         1 VIA      -0.262600
      9 C23         -2.0810    -1.7350     2.7530 c          1 VIA       0.603600
     10 O27         -2.9120    -2.5810     3.0400 o          1 VIA      -0.540000
     11 N22         -1.2510    -1.8390     1.6810 ns         1 VIA      -0.422400
     12 C21         -0.2990    -0.9090     1.3360 cd         1 VIA       0.528500
     13 N26         -0.0890     0.2270     2.0090 nc         1 VIA      -0.545100
     14 C25         -0.8960     0.3960     3.1150 cc         1 VIA       0.070400
     15 C9           0.4950    -1.1780     0.1330 ca         1 VIA      -0.208900
     16 C8          -0.1710    -1.4290    -1.0830 ca         1 VIA       0.041000
     17 C7           0.5640    -1.6620    -2.2610 ca         1 VIA      -0.361500
     18 C6           1.9680    -1.6560    -2.2260 ca         1 VIA       0.046000
     19 C5           2.6340    -1.4040    -1.0170 ca         1 VIA      -0.238000
     20 C4           1.9050    -1.1590     0.1660 ca         1 VIA       0.250100
     21 O3           2.5420    -0.9390     1.3740 os         1 VIA      -0.319100
     22 C2           3.9720    -0.8960     1.4990 c3         1 VIA       0.163600
     23 C1           4.2980    -0.5950     2.9700 c3         1 VIA      -0.097100
     24 S10         -0.2950    -1.9730    -3.8100 sy         1 VIA       1.158600
     25 O11          0.5940    -2.6850    -4.7350 o          1 VIA      -0.536500
     26 O12         -1.6430    -2.4790    -3.5290 o          1 VIA      -0.536500
     27 N14         -0.4990    -0.4110    -4.4570 n3         1 VIA      -0.708500
     28 C19          0.7690     0.3120    -4.7680 c6         1 VIA       0.187300
     29 C18          0.5120     1.6640    -5.5010 c6         1 VIA       0.164800
     30 N17         -0.4070     2.5570    -4.7320 n3         1 VIA      -0.717600
     31 C20         -0.6400     3.8540    -5.4020 c3         1 VIA       0.153100
     32 C16         -1.6750     1.8330    -4.4140 c6         1 VIA       0.164800
     33 C15         -1.4140     0.4790    -3.6840 c6         1 VIA       0.187300
     34 H341         3.3200     3.2990     4.9080 hc         1 VIA       0.031367
     35 H342         2.4860     3.8620     3.4430 hc         1 VIA       0.031367
     36 H343         1.9410     4.4130     5.0450 hc         1 VIA       0.031367
     37 H331         1.8270     1.5060     4.0360 hc         1 VIA       0.046200
     38 H332         1.2870     2.0470     5.6240 hc         1 VIA       0.046200
     39 H321        -0.4680     3.4810     4.5480 hc         1 VIA       0.057700
     40 H322         0.0810     2.9780     2.9570 hc         1 VIA       0.057700
     41 H311        -4.3850    -0.6780     4.8130 h1         1 VIA       0.066033
     42 H312        -3.1750    -1.5200     5.8270 h1         1 VIA       0.066033
     43 H313        -3.7440     0.1130     6.2830 h1         1 VIA       0.066033
     44 H22         -1.3500    -2.6780     1.1310 hn         1 VIA       0.335500
     45 H8          -1.2600    -1.4280    -1.1130 ha         1 VIA       0.142000
     46 H6           2.5490    -1.8430    -3.1290 ha         1 VIA       0.135000
     47 H5           3.7190    -1.4080    -1.0210 ha         1 VIA       0.127000
     48 H21          4.4170    -1.8580     1.2150 h1         1 VIA       0.040200
     49 H22A         4.3950    -0.1070     0.8630 h1         1 VIA       0.040200
     50 H11          5.3830    -0.5780     3.1210 hc         1 VIA       0.053700
     51 H12          3.8960     0.3820     3.2620 hc         1 VIA       0.053700
     52 H13          3.8700    -1.3620     3.6260 hc         1 VIA       0.053700
     53 H191         1.3280     0.5240    -3.8450 h1         1 VIA       0.061200
     54 H192         1.4210    -0.3020    -5.4060 h1         1 VIA       0.061200
     55 H181         1.4780     2.1630    -5.6670 h1         1 VIA       0.044950
     56 H182         0.0870     1.4470    -6.4920 h1         1 VIA       0.044950
     57 H201        -1.2770     4.5010    -4.7830 h1         1 VIA       0.034033
     58 H202         0.3100     4.3780    -5.5720 h1         1 VIA       0.034033
     59 H203        -1.1340     3.7120    -6.3730 h1         1 VIA       0.034033
     60 H161        -2.3210     2.4560    -3.7780 h1         1 VIA       0.044950
     61 H162        -2.2350     1.6270    -5.3380 h1         1 VIA       0.044950
     62 H151        -2.3860    -0.0080    -3.5170 h1         1 VIA       0.061200
     63 H152        -0.9900     0.7000    -2.6930 h1         1 VIA       0.061200
@<TRIPOS>BOND
     1     1     2 1   
     2     1    34 1   
     3     1    35 1   
     4     1    36 1   
     5     2     3 1   
     6     2    37 1   
     7     2    38 1   
     8     3     4 1   
     9     3    39 1   
    10     3    40 1   
    11     4     5 2   
    12     4    14 1   
    13     5     6 1   
    14     6     7 1   
    15     6     8 1   
    16     7    41 1   
    17     7    42 1   
    18     7    43 1   
    19     8     9 1   
    20     8    14 2   
    21     9    10 2   
    22     9    11 1   
    23    11    12 1   
    24    11    44 1   
    25    12    13 2   
    26    12    15 1   
    27    13    14 1   
    28    15    16 ar  
    29    15    20 ar  
    30    16    17 ar  
    31    16    45 1   
    32    17    18 ar  
    33    17    24 1   
    34    18    19 ar  
    35    18    46 1   
    36    19    20 ar  
    37    19    47 1   
    38    20    21 1   
    39    21    22 1   
    40    22    23 1   
    41    22    48 1   
    42    22    49 1   
    43    23    50 1   
    44    23    51 1   
    45    23    52 1   
    46    24    25 2   
    47    24    26 2   
    48    24    27 1   
    49    27    28 1   
    50    27    33 1   
    51    28    29 1   
    52    28    53 1   
    53    28    54 1   
    54    29    30 1   
    55    29    55 1   
    56    29    56 1   
    57    30    31 1   
    58    30    32 1   
    59    31    57 1   
    60    31    58 1   
    61    31    59 1   
    62    32    33 1   
    63    32    60 1   
    64    32    61 1   
    65    33    62 1   
    66    33    63 1   
@<TRIPOS>SUBSTRUCTURE
     1 VIA         1 TEMP              0 ****  ****    0 ROOT
