@<TRIPOS>MOLECULE
VIB
   35    36     1     0     0
SMALL
No Charge or Current Charge


@<TRIPOS>ATOM
      1 CM2          5.0090     1.8350     1.2050 c3         1 VIB      -0.148400
      2 O1          -5.5320     1.5230     0.7670 oh         1 VIB      -0.646000
      3 C7          -4.5540     0.8190    -0.0080 c3         1 VIB       0.173600
      4 C6          -3.4110     0.3350     0.9070 c3         1 VIB      -0.026100
      5 C2          -0.9610    -2.1840    -0.8720 cc         1 VIB      -0.218300
      6 S1          -2.4330    -2.1880     0.0510 ss         1 VIB       0.531000
      7 C5          -2.3400    -0.4250     0.1550 cc         1 VIB      -0.233300
      8 C4          -1.2350     0.1050    -0.4960 cd         1 VIB      -0.077300
      9 N3          -0.4600    -0.9150    -1.0570 na         1 VIB       0.060300
     10 C7A          0.7980    -0.6680    -1.7970 c3         1 VIB       0.132900
     11 C4A          2.4700    -0.6050     0.1880 ca         1 VIB       0.402900
     12 N3A          3.4510    -0.0190     0.8850 nb         1 VIB      -0.248000
     13 C2A          3.9030     1.1600     0.4150 ca         1 VIB       0.220300
     14 N1A          3.4630     1.7990    -0.6880 nb         1 VIB      -0.193000
     15 C6A          2.4780     1.1960    -1.3800 ca         1 VIB       0.175900
     16 C5A          1.9260    -0.0330    -0.9730 ca         1 VIB      -0.356300
     17 HM21         4.5890     2.4790     1.9870 hc         1 VIB       0.076700
     18 HM22         5.6610     1.0990     1.6900 hc         1 VIB       0.076700
     19 HM23         5.6400     2.4580     0.5600 hc         1 VIB       0.076700
     20 H4A1         1.4670    -2.3970     0.1140 hn         1 VIB       0.487000
     21 H4A2         2.6050    -2.2410     1.4150 hn         1 VIB       0.487000
     22 HM41        -0.0690     1.8280     0.1010 hc         1 VIB       0.083700
     23 HM42        -0.5380     1.8370    -1.6100 hc         1 VIB       0.083700
     24 HM43        -1.7250     2.2200    -0.3720 hc         1 VIB       0.083700
     25 HO1         -6.2360     1.8130     0.1430 ho         1 VIB       0.468000
     26 HC71        -4.1410     1.4740    -0.7860 h1         1 VIB       0.021700
     27 HC72        -5.0110    -0.0470    -0.5030 h1         1 VIB       0.021700
     28 HC61        -3.8370    -0.2980     1.6950 hc         1 VIB       0.092700
     29 HC62        -2.9730     1.1990     1.4210 hc         1 VIB       0.092700
     30 HC2         -0.5240    -3.0920    -1.2680 h5         1 VIB       0.208000
     31 H7A1         0.5610    -0.0300    -2.6580 h1         1 VIB       0.088200
     32 H7A2         1.1540    -1.6210    -2.2090 h1         1 VIB       0.088200
     33 H6AC         2.1240     1.7130    -2.2700 h4         1 VIB       0.025100
     34 N4A          2.0590    -1.7990     0.6790 nv         1 VIB      -1.059900
     35 CM4         -0.8720     1.5720    -0.6000 c3         1 VIB      -0.049800
@<TRIPOS>BOND
     1     1    13 1   
     2     1    17 1   
     3     1    18 1   
     4     1    19 1   
     5     2     3 1   
     6     2    25 1   
     7     3     4 1   
     8     3    26 1   
     9     3    27 1   
    10     4     7 1   
    11     4    28 1   
    12     4    29 1   
    13     5     6 1   
    14     5     9 2   
    15     5    30 1   
    16     6     7 1   
    17     7     8 2   
    18     8     9 1   
    19     8    35 1   
    20     9    10 1   
    21    10    16 1   
    22    10    31 1   
    23    10    32 1   
    24    11    12 ar  
    25    11    16 ar  
    26    11    34 1   
    27    12    13 ar  
    28    13    14 ar  
    29    14    15 ar  
    30    15    16 ar  
    31    15    33 1   
    32    20    34 1   
    33    21    34 1   
    34    22    35 1   
    35    23    35 1   
    36    24    35 1   
@<TRIPOS>SUBSTRUCTURE
     1 VIB         1 TEMP              0 ****  ****    0 ROOT
