@<TRIPOS>MOLECULE
VIB
   35    36     1     0     0
SMALL
abcg2


@<TRIPOS>ATOM
      1 CM2          4.8260     1.7520     1.3530 c3         1 VIB      -0.148400
      2 O1          -5.4830     1.4880     0.7220 oh         1 VIB      -0.646000
      3 C7          -4.5220     0.7430     0.0200 c3         1 VIB       0.173600
      4 C6          -3.3170     0.5570     0.9370 c3         1 VIB      -0.026100
      5 C2          -0.8820    -2.0240    -0.6360 cc         1 VIB      -0.218300
      6 S1          -2.2450    -1.9550     0.3270 ss         1 VIB       0.531000
      7 C5          -2.2460    -0.2350     0.2670 cc         1 VIB      -0.233300
      8 C4          -1.2140     0.2150    -0.4930 cd         1 VIB      -0.077300
      9 N3          -0.4500    -0.8310    -0.9810 na         1 VIB       0.060300
     10 C7A          0.7710    -0.6500    -1.7940 c3         1 VIB       0.132900
     11 C4A          2.5360    -0.7610     0.0510 ca         1 VIB       0.402900
     12 N3A          3.4690    -0.1580     0.7890 nb         1 VIB      -0.248000
     13 C2A          3.8090     1.0840     0.4840 ca         1 VIB       0.220300
     14 N1A          3.3150     1.7940    -0.5270 nb         1 VIB      -0.193000
     15 C6A          2.3590     1.2070    -1.2350 ca         1 VIB       0.175900
     16 C5A          1.8870    -0.0660    -0.9920 ca         1 VIB      -0.356300
     17 HM21         4.3260     2.4210     2.0580 hc         1 VIB       0.076700
     18 HM22         5.3950     1.0260     1.9270 hc         1 VIB       0.076700
     19 HM23         5.5060     2.3590     0.7590 hc         1 VIB       0.076700
     20 H4A1         1.8580    -2.6510    -0.3290 hn         1 VIB       0.487000
     21 H4A2         2.8240    -2.4840     1.0470 hn         1 VIB       0.487000
     22 HM41        -0.0840     2.0100    -0.2040 hc         1 VIB       0.083700
     23 HM42        -0.6490     1.7640    -1.8610 hc         1 VIB       0.083700
     24 HM43        -1.7770     2.2540    -0.6130 hc         1 VIB       0.083700
     25 HO1         -6.2340     1.6360     0.1400 ho         1 VIB       0.468000
     26 HC71        -4.1990     1.2500    -0.8980 h1         1 VIB       0.021700
     27 HC72        -4.9040    -0.2420    -0.2790 h1         1 VIB       0.021700
     28 HC61        -3.6260     0.0600     1.8580 hc         1 VIB       0.092700
     29 HC62        -2.9120     1.5290     1.2240 hc         1 VIB       0.092700
     30 HC2         -0.4140    -2.9420    -0.9570 h5         1 VIB       0.208000
     31 H7A1         0.5150    -0.0060    -2.6340 h1         1 VIB       0.088200
     32 H7A2         1.0130    -1.6270    -2.2130 h1         1 VIB       0.088200
     33 H6AC         1.9360     1.7870    -2.0500 h4         1 VIB       0.025100
     34 N4A          2.2260    -2.0320     0.3740 nv         1 VIB      -1.059900
     35 CM4         -0.9070     1.6330    -0.8100 c3         1 VIB      -0.049800
@<TRIPOS>BOND
     1     1    13 1   
     2     1    17 1   
     3     1    18 1   
     4     1    19 1   
     5     2     3 1   
     6     2    25 1   
     7     3     4 1   
     8     3    26 1   
     9     3    27 1   
    10     4     7 1   
    11     4    28 1   
    12     4    29 1   
    13     5     6 1   
    14     5     9 2   
    15     5    30 1   
    16     6     7 1   
    17     7     8 2   
    18     8     9 1   
    19     8    35 1   
    20     9    10 1   
    21    10    16 1   
    22    10    31 1   
    23    10    32 1   
    24    11    12 ar  
    25    11    16 ar  
    26    11    34 1   
    27    12    13 ar  
    28    13    14 ar  
    29    14    15 ar  
    30    15    16 ar  
    31    15    33 1   
    32    20    34 1   
    33    21    34 1   
    34    22    35 1   
    35    23    35 1   
    36    24    35 1   
@<TRIPOS>SUBSTRUCTURE
     1 VIB         1 TEMP              0 ****  ****    0 ROOT
