@<TRIPOS>MOLECULE
VIC
   58    60     1     0     0
SMALL
abcg2


@<TRIPOS>ATOM
      1 C4          25.5270    -4.1710    25.1630 ca         1 VIC      -0.160000
      2 C14         26.5420    -3.9420    28.0030 c3         1 VIC      -0.075400
      3 C5          25.0990    -3.1310    26.0310 ca         1 VIC      -0.073000
      4 C6          24.1550    -2.1850    25.5390 ca         1 VIC       0.003000
      5 C11         22.8170    -2.7730    20.0150 c3         1 VIC      -0.094100
      6 C7          25.5270    -3.0040    27.3840 ca         1 VIC       0.379300
      7 C8          24.1950    -1.1420    27.6960 ca         1 VIC       0.327900
      8 C9          23.7130    -1.1720    26.4160 ca         1 VIC      -0.153000
      9 C10         22.9220    -2.4460    21.4860 c3         1 VIC       0.161600
     10 C12         26.4840    -6.1160    23.2820 c3         1 VIC       0.157600
     11 C13         27.8710    -5.5180    23.1390 c3         1 VIC      -0.126100
     12 N1          25.1080    -2.0230    28.1680 nb         1 VIC      -0.687000
     13 C3          25.0930    -4.2330    23.8650 ca         1 VIC       0.126100
     14 C1          23.7000    -2.2740    24.2030 ca         1 VIC      -0.197000
     15 C15         25.9130    -5.0420    28.8440 ca         1 VIC      -0.085300
     16 C16         24.9670    -4.7590    29.8230 ca         1 VIC      -0.087000
     17 C17         24.3890    -5.7780    30.5760 ca         1 VIC      -0.172000
     18 C18         24.7480    -7.1060    30.3730 ca         1 VIC       0.119100
     19 C19         25.6890    -7.4090    29.3690 ca         1 VIC       0.104100
     20 C2          24.1450    -3.2730    23.3740 ca         1 VIC       0.155100
     21 C20         26.2520    -6.3800    28.6210 ca         1 VIC      -0.154000
     22 C21         27.3100    -9.0680    28.7200 c3         1 VIC       0.164600
     23 C22         27.4480   -10.5710    28.8130 c3         1 VIC      -0.094100
     24 C23         23.4070    -7.8960    32.2040 c3         1 VIC       0.161600
     25 C24         23.2480    -9.1910    32.9670 c3         1 VIC      -0.094100
     26 O1          23.7600    -3.4450    22.0940 os         1 VIC      -0.334100
     27 O2          25.4550    -5.1710    22.9560 os         1 VIC      -0.333100
     28 O3          25.9970    -8.7280    29.2050 os         1 VIC      -0.348100
     29 O4          24.2320    -8.1620    31.0590 os         1 VIC      -0.339100
     30 H1          26.2340    -4.9000    25.5240 ha         1 VIC       0.124000
     31 H2          27.1670    -4.4050    27.2430 hc         1 VIC       0.061700
     32 H3          27.1790    -3.3220    28.6370 hc         1 VIC       0.061700
     33 H4          22.1890    -2.0330    19.5170 hc         1 VIC       0.049700
     34 H5          23.8030    -2.7780    19.5480 hc         1 VIC       0.049700
     35 H6          22.3700    -3.7590    19.8740 hc         1 VIC       0.049700
     36 H7          23.8940    -0.3610    28.3860 h4         1 VIC       0.017100
     37 H8          23.0110    -0.4230    26.0700 ha         1 VIC       0.119000
     38 H9          23.3680    -1.4610    21.6500 h1         1 VIC       0.036700
     39 H10         21.9400    -2.4650    21.9680 h1         1 VIC       0.036700
     40 H11         26.3200    -6.5240    24.2800 h1         1 VIC       0.054200
     41 H12         26.3380    -6.9320    22.5750 h1         1 VIC       0.054200
     42 H13         28.6220    -6.2720    23.3820 hc         1 VIC       0.047033
     43 H14         28.0310    -5.1790    22.1140 hc         1 VIC       0.047033
     44 H15         28.0100    -4.6680    23.8080 hc         1 VIC       0.047033
     45 H16         22.9630    -1.5610    23.8630 ha         1 VIC       0.123000
     46 H17         24.6710    -3.7350    30.0050 ha         1 VIC       0.133000
     47 H18         23.6750    -5.5240    31.3460 ha         1 VIC       0.117000
     48 H19         26.9590    -6.6190    27.8370 ha         1 VIC       0.110000
     49 H20         28.0450    -8.5630    29.3530 h1         1 VIC       0.030700
     50 H21         27.4190    -8.7380    27.6870 h1         1 VIC       0.030700
     51 H22         28.4350   -10.8700    28.4560 hc         1 VIC       0.046700
     52 H23         27.3560   -10.9000    29.8500 hc         1 VIC       0.046700
     53 H24         26.6860   -11.0690    28.2120 hc         1 VIC       0.046700
     54 H25         23.8780    -7.1300    32.8250 h1         1 VIC       0.034200
     55 H26         22.4380    -7.5220    31.8610 h1         1 VIC       0.034200
     56 H27         22.6010    -9.0300    33.8310 hc         1 VIC       0.047033
     57 H28         22.8030    -9.9620    32.3350 hc         1 VIC       0.047033
     58 H29         24.2130    -9.5480    33.3290 hc         1 VIC       0.047033
@<TRIPOS>BOND
     1     1     3 ar  
     2     1    13 ar  
     3     1    30 1   
     4     2     6 1   
     5     2    15 1   
     6     2    31 1   
     7     2    32 1   
     8     3     4 ar  
     9     3     6 ar  
    10     4     8 ar  
    11     4    14 ar  
    12     5     9 1   
    13     5    33 1   
    14     5    34 1   
    15     5    35 1   
    16     6    12 ar  
    17     7     8 ar  
    18     7    12 ar  
    19     7    36 1   
    20     8    37 1   
    21     9    26 1   
    22     9    38 1   
    23     9    39 1   
    24    10    11 1   
    25    10    27 1   
    26    10    40 1   
    27    10    41 1   
    28    11    42 1   
    29    11    43 1   
    30    11    44 1   
    31    13    20 ar  
    32    13    27 1   
    33    14    20 ar  
    34    14    45 1   
    35    15    16 ar  
    36    15    21 ar  
    37    16    17 ar  
    38    16    46 1   
    39    17    18 ar  
    40    17    47 1   
    41    18    19 ar  
    42    18    29 1   
    43    19    21 ar  
    44    19    28 1   
    45    20    26 1   
    46    21    48 1   
    47    22    23 1   
    48    22    28 1   
    49    22    49 1   
    50    22    50 1   
    51    23    51 1   
    52    23    52 1   
    53    23    53 1   
    54    24    25 1   
    55    24    29 1   
    56    24    54 1   
    57    24    55 1   
    58    25    56 1   
    59    25    57 1   
    60    25    58 1   
@<TRIPOS>SUBSTRUCTURE
     1 VIC         1 TEMP              0 ****  ****    0 ROOT
