@<TRIPOS>MOLECULE
VIC
   58    60     1     0     0
SMALL
No Charge or Current Charge


@<TRIPOS>ATOM
      1 C4          25.5950    -4.0960    25.7630 ca         1 VIC      -0.160000
      2 C14         26.8450    -3.3500    28.4120 c3         1 VIC      -0.075400
      3 C5          25.3470    -2.8360    26.3540 ca         1 VIC      -0.073000
      4 C6          24.5020    -1.9260    25.6880 ca         1 VIC       0.003000
      5 C11         22.2750    -3.7580    20.6560 c3         1 VIC      -0.094100
      6 C7          25.9130    -2.4440    27.6010 ca         1 VIC       0.379300
      7 C8          24.8590    -0.3730    27.5080 ca         1 VIC       0.327900
      8 C9          24.2580    -0.6770    26.2790 ca         1 VIC      -0.153000
      9 C10         22.7080    -3.0140    21.9290 c3         1 VIC       0.161600
     10 C12         26.0800    -6.7010    24.4750 c3         1 VIC       0.157600
     11 C13         27.5400    -6.3200    24.1560 c3         1 VIC      -0.126100
     12 N1          25.6710    -1.2320    28.1620 nb         1 VIC      -0.687000
     13 C3          25.0020    -4.4460    24.5280 ca         1 VIC       0.126100
     14 C1          23.9100    -2.2580    24.4580 ca         1 VIC      -0.197000
     15 C15         26.1490    -4.5970    28.9560 ca         1 VIC      -0.085300
     16 C16         24.9780    -4.4750    29.7230 ca         1 VIC      -0.087000
     17 C17         24.3210    -5.6180    30.2080 ca         1 VIC      -0.172000
     18 C18         24.8310    -6.9060    29.9270 ca         1 VIC       0.119100
     19 C19         26.0130    -7.0360    29.1590 ca         1 VIC       0.104100
     20 C2          24.1540    -3.5210    23.8730 ca         1 VIC       0.155100
     21 C20         26.6710    -5.8770    28.6860 ca         1 VIC      -0.154000
     22 C21         27.6630    -8.5350    28.0810 c3         1 VIC       0.164600
     23 C22         27.8650   -10.0540    27.9740 c3         1 VIC      -0.094100
     24 C23         22.9970    -8.0170    31.1630 c3         1 VIC       0.161600
     25 C24         22.6020    -9.4680    31.4760 c3         1 VIC      -0.094100
     26 O1          23.5810    -3.8860    22.6650 os         1 VIC      -0.334100
     27 O2          25.2020    -5.6890    23.9410 os         1 VIC      -0.333100
     28 O3          26.4930    -8.3070    28.8840 os         1 VIC      -0.348100
     29 O4          24.2030    -8.0540    30.3820 os         1 VIC      -0.339100
     30 H1          26.2440    -4.8000    26.2650 ha         1 VIC       0.124000
     31 H2          27.7010    -3.6270    27.7860 hc         1 VIC       0.061700
     32 H3          27.2780    -2.7940    29.2530 hc         1 VIC       0.061700
     33 H4          21.6050    -3.1290    20.0580 hc         1 VIC       0.049700
     34 H5          23.1480    -4.0110    20.0410 hc         1 VIC       0.049700
     35 H6          21.7440    -4.6830    20.9100 hc         1 VIC       0.049700
     36 H7          24.6850     0.5900    27.9870 h4         1 VIC       0.017100
     37 H8          23.6130     0.0540    25.8000 ha         1 VIC       0.119000
     38 H9          23.2260    -2.0870    21.6510 h1         1 VIC       0.036700
     39 H10         21.8200    -2.7600    22.5220 h1         1 VIC       0.036700
     40 H11         25.9330    -6.8370    25.5550 h1         1 VIC       0.054200
     41 H12         25.8640    -7.6640    23.9950 h1         1 VIC       0.054200
     42 H13         28.2200    -7.1010    24.5170 hc         1 VIC       0.047033
     43 H14         27.6820    -6.2190    23.0730 hc         1 VIC       0.047033
     44 H15         27.8270    -5.3760    24.6320 hc         1 VIC       0.047033
     45 H16         23.2640    -1.5320    23.9750 ha         1 VIC       0.123000
     46 H17         24.5710    -3.4890    29.9440 ha         1 VIC       0.133000
     47 H18         23.4170    -5.4840    30.7960 ha         1 VIC       0.117000
     48 H19         27.5810    -5.9560    28.0990 ha         1 VIC       0.110000
     49 H20         28.5480    -8.0810    28.5450 h1         1 VIC       0.030700
     50 H21         27.5340    -8.1130    27.0760 h1         1 VIC       0.030700
     51 H22         28.7500   -10.2770    27.3670 hc         1 VIC       0.046700
     52 H23         28.0080   -10.4960    28.9670 hc         1 VIC       0.046700
     53 H24         26.9960   -10.5270    27.5010 hc         1 VIC       0.046700
     54 H25         23.1580    -7.4710    32.1020 h1         1 VIC       0.034200
     55 H26         22.1860    -7.5300    30.6050 h1         1 VIC       0.034200
     56 H27         21.6820    -9.4900    32.0730 hc         1 VIC       0.047033
     57 H28         22.4240   -10.0290    30.5510 hc         1 VIC       0.047033
     58 H29         23.3930    -9.9700    32.0450 hc         1 VIC       0.047033
@<TRIPOS>BOND
     1     1     3 ar  
     2     1    13 ar  
     3     1    30 1   
     4     2     6 1   
     5     2    15 1   
     6     2    31 1   
     7     2    32 1   
     8     3     4 ar  
     9     3     6 ar  
    10     4     8 ar  
    11     4    14 ar  
    12     5     9 1   
    13     5    33 1   
    14     5    34 1   
    15     5    35 1   
    16     6    12 ar  
    17     7     8 ar  
    18     7    12 ar  
    19     7    36 1   
    20     8    37 1   
    21     9    26 1   
    22     9    38 1   
    23     9    39 1   
    24    10    11 1   
    25    10    27 1   
    26    10    40 1   
    27    10    41 1   
    28    11    42 1   
    29    11    43 1   
    30    11    44 1   
    31    13    20 ar  
    32    13    27 1   
    33    14    20 ar  
    34    14    45 1   
    35    15    16 ar  
    36    15    21 ar  
    37    16    17 ar  
    38    16    46 1   
    39    17    18 ar  
    40    17    47 1   
    41    18    19 ar  
    42    18    29 1   
    43    19    21 ar  
    44    19    28 1   
    45    20    26 1   
    46    21    48 1   
    47    22    23 1   
    48    22    28 1   
    49    22    49 1   
    50    22    50 1   
    51    23    51 1   
    52    23    52 1   
    53    23    53 1   
    54    24    25 1   
    55    24    29 1   
    56    24    54 1   
    57    24    55 1   
    58    25    56 1   
    59    25    57 1   
    60    25    58 1   
@<TRIPOS>SUBSTRUCTURE
     1 VIC         1 TEMP              0 ****  ****    0 ROOT
