@<TRIPOS>MOLECULE
VIE
   32    33     1     0     0
SMALL
abcg2


@<TRIPOS>ATOM
      1 N1          27.1050    14.3300    42.7260 n8         1 VIE      -1.007200
      2 C7          28.0730    15.4870    36.6960 ca         1 VIE      -0.113500
      3 C8          29.0570    15.3140    37.6710 ca         1 VIE      -0.097500
      4 C9          28.7890    15.7010    38.9760 ca         1 VIE      -0.087300
      5 C1          28.4860    17.0510    43.5410 c3         1 VIE       0.167600
      6 C5          26.5710    16.4250    38.3460 ca         1 VIE      -0.097500
      7 C6          26.8380    16.0380    37.0320 ca         1 VIE      -0.113500
      8 C4          27.5530    16.2550    39.3130 ca         1 VIE      -0.087300
      9 C3          27.5170    16.6040    40.7760 c5         1 VIE      -0.029100
     10 C2          28.6890    15.7950    41.3880 c5         1 VIE       0.210200
     11 C11         28.2090    14.3710    41.7610 c3         1 VIE       0.126800
     12 N           29.3440    16.5410    42.4790 n3         1 VIE      -0.743600
     13 C           30.5080    15.8800    43.0480 c3         1 VIE       0.167600
     14 C10         29.6740    15.6300    40.1900 c5         1 VIE      -0.029100
     15 H1          26.6720    13.4140    42.7020 hn         1 VIE       0.394500
     16 H2          27.4530    14.4520    43.6700 hn         1 VIE       0.394500
     17 H4          28.2670    15.1840    35.6750 ha         1 VIE       0.110000
     18 H5          30.0140    14.8770    37.4080 ha         1 VIE       0.112500
     19 H6          29.0320    17.8230    44.0890 h1         1 VIE       0.028533
     20 H7          27.5850    17.5020    43.1320 h1         1 VIE       0.028533
     21 H8          28.1860    16.2880    44.2740 h1         1 VIE       0.028533
     22 H9          25.6080    16.8490    38.6050 ha         1 VIE       0.112500
     23 H10         26.0780    16.1620    36.2700 ha         1 VIE       0.110000
     24 H11         27.7010    17.6750    40.9080 hc         1 VIE       0.064950
     25 H12         26.5650    16.3680    41.2490 hc         1 VIE       0.064950
     26 H13         27.8580    13.8950    40.8430 h1         1 VIE       0.034200
     27 H14         29.0810    13.7960    42.0930 h1         1 VIE       0.034200
     28 H16         31.0420    16.5890    43.6850 h1         1 VIE       0.028533
     29 H17         30.2530    15.0060    43.6700 h1         1 VIE       0.028533
     30 H18         31.1890    15.5520    42.2640 h1         1 VIE       0.028533
     31 H19         30.2510    14.7050    40.2410 hc         1 VIE       0.064950
     32 H20         30.3860    16.4610    40.1950 hc         1 VIE       0.064950
@<TRIPOS>BOND
     1     1    11 1   
     2     1    15 1   
     3     1    16 1   
     4     2     3 ar  
     5     2     7 ar  
     6     2    17 1   
     7     3     4 ar  
     8     3    18 1   
     9     4     8 ar  
    10     4    14 1   
    11     5    12 1   
    12     5    19 1   
    13     5    20 1   
    14     5    21 1   
    15     6     7 ar  
    16     6     8 ar  
    17     6    22 1   
    18     7    23 1   
    19     8     9 1   
    20     9    10 1   
    21     9    24 1   
    22     9    25 1   
    23    10    11 1   
    24    10    12 1   
    25    10    14 1   
    26    11    26 1   
    27    11    27 1   
    28    12    13 1   
    29    13    28 1   
    30    13    29 1   
    31    13    30 1   
    32    14    31 1   
    33    14    32 1   
@<TRIPOS>SUBSTRUCTURE
     1 VIE         1 TEMP              0 ****  ****    0 ROOT
