@<TRIPOS>MOLECULE
VIE
   32    33     1     0     0
SMALL
No Charge or Current Charge


@<TRIPOS>ATOM
      1 N1          27.0590    14.2430    42.7850 n8         1 VIE      -1.007200
      2 C7          28.0880    15.4690    36.6700 ca         1 VIE      -0.113500
      3 C8          29.0740    15.3060    37.6640 ca         1 VIE      -0.097500
      4 C9          28.7890    15.7240    38.9730 ca         1 VIE      -0.087300
      5 C1          28.4620    17.0310    43.5780 c3         1 VIE       0.167600
      6 C5          26.5780    16.4610    38.3170 ca         1 VIE      -0.097500
      7 C6          26.8410    16.0460    36.9970 ca         1 VIE      -0.113500
      8 C4          27.5730    16.2870    39.2920 ca         1 VIE      -0.087300
      9 C3          27.4990    16.6650    40.7480 c5         1 VIE      -0.029100
     10 C2          28.6420    15.7380    41.3630 c5         1 VIE       0.210200
     11 C11         28.1170    14.2950    41.7400 c3         1 VIE       0.126800
     12 N           29.3250    16.5220    42.4780 n3         1 VIE      -0.743600
     13 C           30.5570    15.9020    43.0360 c3         1 VIE       0.167600
     14 C10         29.6970    15.6470    40.1730 c5         1 VIE      -0.029100
     15 H1          26.8820    13.2630    43.0370 hn         1 VIE       0.394500
     16 H2          27.4380    14.6530    43.6450 hn         1 VIE       0.394500
     17 H4          28.2880    15.1510    35.6500 ha         1 VIE       0.110000
     18 H5          30.0370    14.8650    37.4190 ha         1 VIE       0.112500
     19 H6          29.0160    17.7540    44.1900 h1         1 VIE       0.028533
     20 H7          27.5690    17.5440    43.1990 h1         1 VIE       0.028533
     21 H8          28.1390    16.2190    44.2410 h1         1 VIE       0.028533
     22 H9          25.6210    16.9090    38.5750 ha         1 VIE       0.112500
     23 H10         26.0830    16.1720    36.2270 ha         1 VIE       0.110000
     24 H11         27.7170    17.7320    40.8720 hc         1 VIE       0.064950
     25 H12         26.5150    16.4760    41.1890 hc         1 VIE       0.064950
     26 H13         27.7200    13.8150    40.8340 h1         1 VIE       0.034200
     27 H14         28.9670    13.6910    42.0850 h1         1 VIE       0.034200
     28 H16         31.0450    16.5840    43.7450 h1         1 VIE       0.028533
     29 H17         30.3200    14.9720    43.5700 h1         1 VIE       0.028533
     30 H18         31.2890    15.6700    42.2520 h1         1 VIE       0.028533
     31 H19         30.2880    14.7240    40.2020 hc         1 VIE       0.064950
     32 H20         30.4000    16.4890    40.1710 hc         1 VIE       0.064950
@<TRIPOS>BOND
     1     1    11 1   
     2     1    15 1   
     3     1    16 1   
     4     2     3 ar  
     5     2     7 ar  
     6     2    17 1   
     7     3     4 ar  
     8     3    18 1   
     9     4     8 ar  
    10     4    14 1   
    11     5    12 1   
    12     5    19 1   
    13     5    20 1   
    14     5    21 1   
    15     6     7 ar  
    16     6     8 ar  
    17     6    22 1   
    18     7    23 1   
    19     8     9 1   
    20     9    10 1   
    21     9    24 1   
    22     9    25 1   
    23    10    11 1   
    24    10    12 1   
    25    10    14 1   
    26    11    26 1   
    27    11    27 1   
    28    12    13 1   
    29    13    28 1   
    30    13    29 1   
    31    13    30 1   
    32    14    31 1   
    33    14    32 1   
@<TRIPOS>SUBSTRUCTURE
     1 VIE         1 TEMP              0 ****  ****    0 ROOT
