@<TRIPOS>MOLECULE
VIF
   76    78     1     0     0
SMALL
No Charge or Current Charge


@<TRIPOS>ATOM
      1 C10          4.7410     0.7130    -0.3420 ce         1 VIF      -0.182000
      2 C13         -4.7580     0.0930     1.1450 c5         1 VIF       0.101000
      3 C15         -3.1990     0.0820    -0.9390 c          1 VIF       0.556600
      4 C17          5.5140    -1.7100    -0.2570 c3         1 VIF       0.122200
      5 C20          4.2940     2.0000     0.2240 ce         1 VIF      -0.052200
      6 C21          4.0730     3.0450    -0.6110 c2         1 VIF      -0.271200
      7 C22          3.5740     4.4360    -0.2790 c3         1 VIF       0.216500
      8 C24          4.0060     2.0520     1.7220 c3         1 VIF      -0.065900
      9 C26         -0.7470    -5.1140    -1.6590 c3         1 VIF      -0.084100
     10 N           -1.5760     2.0150    -1.3800 nc         1 VIF      -0.634000
     11 C           -0.5480    -2.4640     1.3610 c3         1 VIF      -0.065700
     12 C01          2.2670    -3.3840    -1.1130 ce         1 VIF      -0.316200
     13 N01         -4.1380    -0.5270    -0.0490 n          1 VIF      -0.415800
     14 O01         -2.3110    -2.9470    -0.2370 os         1 VIF      -0.444100
     15 C02          1.2560    -4.0830    -0.5470 c2         1 VIF      -0.121200
     16 N02          4.3170    -2.2140    -0.9200 ns         1 VIF      -0.482900
     17 C03          3.6640    -3.3810    -0.6160 c          1 VIF       0.597300
     18 O03         -2.8470    -0.5510    -1.9300 o          1 VIF      -0.557100
     19 C04         -0.2740     4.1320    -1.1870 c3         1 VIF      -0.127700
     20 O04          4.5390     5.3620    -0.7660 oh         1 VIF      -0.660000
     21 C05         -0.2070    -3.8850    -0.8920 c3         1 VIF      -0.053500
     22 O05         -2.1970     3.4800     0.2410 os         1 VIF      -0.244000
     23 C06         -1.1110    -3.5150     0.3300 c3         1 VIF       0.194300
     24 C07          1.0590     3.8250    -0.4730 c3         1 VIF       0.197300
     25 C08         -3.4770    -2.9440     0.4850 c          1 VIF       0.585100
     26 C09         -4.5090    -1.9710    -0.1860 c5         1 VIF       0.060700
     27 C11         -5.8730    -1.9820     0.5640 c5         1 VIF      -0.082400
     28 C12         -5.5840    -1.0600     1.7760 c5         1 VIF      -0.098400
     29 C14          2.2120     4.7450    -0.9380 c3         1 VIF      -0.103400
     30 C16          0.4790    -3.0450     2.3650 c3         1 VIF      -0.092600
     31 C18          5.1510    -0.3760     0.3550 c2         1 VIF      -0.242200
     32 C19         -0.0220    -1.1560     0.7170 c3         1 VIF      -0.092600
     33 C23         -2.6190     1.4590    -0.6630 cc         1 VIF       0.186500
     34 C25         -2.9810     2.3700     0.3030 cd         1 VIF       0.135900
     35 C27         -1.3660     3.1820    -0.7960 cd         1 VIF       0.437300
     36 F            0.8860     3.9670     0.8640 f          1 VIF      -0.270000
     37 H1           4.7140     0.6500    -1.4310 ha         1 VIF       0.169000
     38 H2          -4.0090     0.4510     1.8620 h1         1 VIF       0.045200
     39 H3           5.8500    -2.4130     0.5180 h1         1 VIF       0.068700
     40 H4           6.3170    -1.5920    -0.9970 h1         1 VIF       0.068700
     41 H5           4.2650     2.9220    -1.6770 ha         1 VIF       0.179000
     42 H6           3.4720     4.5640     0.8060 h1         1 VIF       0.048700
     43 H7           3.6100     1.1000     2.0940 hc         1 VIF       0.048700
     44 H8           4.9140     2.2830     2.2910 hc         1 VIF       0.048700
     45 H9           3.2510     2.8010     1.9810 hc         1 VIF       0.048700
     46 H10         -0.7300    -6.0080    -1.0240 hc         1 VIF       0.043033
     47 H11         -1.7780    -4.9470    -1.9920 hc         1 VIF       0.043033
     48 H12         -0.1340    -5.3120    -2.5470 hc         1 VIF       0.043033
     49 H13         -1.3970    -2.1640     1.9870 hc         1 VIF       0.046700
     50 H14          2.0390    -2.6330    -1.8670 ha         1 VIF       0.181000
     51 H16          1.4500    -4.8020     0.2540 ha         1 VIF       0.195000
     52 H18          3.8050    -1.5610    -1.4980 hn         1 VIF       0.297500
     53 H19         -0.5800     5.1600    -0.9600 hc         1 VIF       0.083200
     54 H20         -0.1220     4.0830    -2.2710 hc         1 VIF       0.083200
     55 H21          5.4020     5.0780    -0.3930 ho         1 VIF       0.449000
     56 H22         -0.2710    -3.0380    -1.5870 hc         1 VIF       0.076700
     57 H23         -1.3400    -4.4450     0.8700 h1         1 VIF       0.066700
     58 H24          1.3330     2.7790    -0.6700 h1         1 VIF       0.071700
     59 H25         -4.6220    -2.2780    -1.2340 h1         1 VIF       0.108700
     60 H26         -6.6650    -1.5610    -0.0670 hc         1 VIF       0.072200
     61 H27         -6.1990    -2.9880     0.8570 hc         1 VIF       0.072200
     62 H28         -5.0050    -1.5780     2.5480 hc         1 VIF       0.061200
     63 H29          1.9420     5.7870    -0.7240 hc         1 VIF       0.066700
     64 H30          2.3160     4.6630    -2.0270 hc         1 VIF       0.066700
     65 H31          1.4720    -3.1610     1.9170 hc         1 VIF       0.040533
     66 H32          0.5890    -2.3710     3.2230 hc         1 VIF       0.040533
     67 H33          0.1490    -4.0190     2.7450 hc         1 VIF       0.040533
     68 H34          5.2130    -0.3700     1.4440 ha         1 VIF       0.186000
     69 H35          0.9150    -1.3240     0.1770 hc         1 VIF       0.040533
     70 H36         -0.7490    -0.7440     0.0120 hc         1 VIF       0.040533
     71 H37          0.1670    -0.3980     1.4870 hc         1 VIF       0.040533
     72 H38         -3.7500     2.3830     1.0590 h4         1 VIF       0.068100
     73 H39         -5.4130     0.9250     0.8500 h1         1 VIF       0.045200
     74 H15         -6.5000    -0.6970     2.2570 hc         1 VIF       0.061200
     75 O            4.1350    -4.2510     0.1010 o          1 VIF      -0.593100
     76 O02         -3.6420    -3.6080     1.5020 o          1 VIF      -0.493000
@<TRIPOS>BOND
     1     1     5 1   
     2     1    31 2   
     3     1    37 1   
     4     2    13 1   
     5     2    28 1   
     6     2    38 1   
     7     2    73 1   
     8     3    13 1   
     9     3    18 2   
    10     3    33 1   
    11     4    16 1   
    12     4    31 1   
    13     4    39 1   
    14     4    40 1   
    15     5     6 2   
    16     5     8 1   
    17     6     7 1   
    18     6    41 1   
    19     7    20 1   
    20     7    29 1   
    21     7    42 1   
    22     8    43 1   
    23     8    44 1   
    24     8    45 1   
    25     9    21 1   
    26     9    46 1   
    27     9    47 1   
    28     9    48 1   
    29    10    33 1   
    30    10    35 2   
    31    11    23 1   
    32    11    30 1   
    33    11    32 1   
    34    11    49 1   
    35    12    15 2   
    36    12    17 1   
    37    12    50 1   
    38    13    26 1   
    39    14    23 1   
    40    14    25 1   
    41    15    21 1   
    42    15    51 1   
    43    16    17 1   
    44    16    52 1   
    45    17    75 2   
    46    19    24 1   
    47    19    35 1   
    48    19    53 1   
    49    19    54 1   
    50    20    55 1   
    51    21    23 1   
    52    21    56 1   
    53    22    34 1   
    54    22    35 1   
    55    23    57 1   
    56    24    29 1   
    57    24    36 1   
    58    24    58 1   
    59    25    26 1   
    60    25    76 2   
    61    26    27 1   
    62    26    59 1   
    63    27    28 1   
    64    27    60 1   
    65    27    61 1   
    66    28    62 1   
    67    28    74 1   
    68    29    63 1   
    69    29    64 1   
    70    30    65 1   
    71    30    66 1   
    72    30    67 1   
    73    31    68 1   
    74    32    69 1   
    75    32    70 1   
    76    32    71 1   
    77    33    34 2   
    78    34    72 1   
@<TRIPOS>SUBSTRUCTURE
     1 VIF         1 TEMP              0 ****  ****    0 ROOT
