@<TRIPOS>MOLECULE
VIF
   76    78     1     0     0
SMALL
bcc


@<TRIPOS>ATOM
      1 C10          4.8340     0.5990    -0.2840 ce         1 VIF      -0.132000
      2 C13         -4.5510     0.0010     1.1970 c5         1 VIF       0.101000
      3 C15         -3.3780     0.0160    -1.0320 c          1 VIF       0.623600
      4 C17          5.5160    -1.7680    -0.6870 c3         1 VIF       0.122200
      5 C20          4.1120     1.6780     0.3920 ce         1 VIF      -0.052200
      6 C21          4.0300     2.8650    -0.2300 c2         1 VIF      -0.221200
      7 C22          3.3270     4.1060     0.2310 c3         1 VIF       0.193300
      8 C24          3.4720     1.3640     1.7120 c3         1 VIF      -0.065900
      9 C26         -0.8860    -4.9280    -1.1100 c3         1 VIF      -0.084100
     10 N           -1.7020     1.7580    -1.4760 nc         1 VIF      -0.634000
     11 C           -0.2470    -1.7250     1.1300 c3         1 VIF      -0.065700
     12 C01          2.2230    -3.3450    -1.1430 ce         1 VIF      -0.266200
     13 N01         -4.0860    -0.5890    -0.0570 n          1 VIF      -0.482800
     14 O01         -2.1680    -2.4300    -0.0480 os         1 VIF      -0.420900
     15 C02          1.2320    -3.8470    -0.4090 c2         1 VIF      -0.071200
     16 N02          4.4150    -2.4660    -1.3350 ns         1 VIF      -0.549900
     17 C03          3.6170    -3.3240    -0.6510 c          1 VIF       0.664300
     18 O03         -3.1360    -0.5230    -2.1010 o          1 VIF      -0.557100
     19 C04         -0.2240     3.7650    -1.3590 c3         1 VIF      -0.127700
     20 O04          4.1800     5.2300     0.0960 oh         1 VIF      -0.597800
     21 C05         -0.2090    -3.6100    -0.7230 c3         1 VIF      -0.053500
     22 O05         -2.2600     3.3650    -0.0960 os         1 VIF      -0.332800
     23 C06         -0.9220    -2.9380     0.4640 c3         1 VIF       0.171100
     24 C07          0.9860     3.3920    -0.5040 c3         1 VIF       0.178600
     25 C08         -3.3410    -2.9050     0.3140 c          1 VIF       0.634100
     26 C09         -4.4750    -1.9870    -0.1610 c5         1 VIF       0.060700
     27 C11         -5.6820    -2.0710     0.7620 c5         1 VIF      -0.082400
     28 C12         -5.2800    -1.1420     1.9030 c5         1 VIF      -0.098400
     29 C14          2.0970     4.4100    -0.6250 c3         1 VIF      -0.103400
     30 C16          0.8430    -2.1060     2.1300 c3         1 VIF      -0.092600
     31 C18          4.9460    -0.6590     0.1500 c2         1 VIF      -0.192200
     32 C19          0.2420    -0.6630     0.1470 c3         1 VIF      -0.092600
     33 C23         -2.8220     1.3670    -0.7660 cc         1 VIF       0.186500
     34 C25         -3.1540     2.3740     0.0780 cd         1 VIF       0.180300
     35 C27         -1.4020     2.9240    -1.0320 cd         1 VIF       0.481700
     36 F            0.5690     3.3170     0.8310 f          1 VIF      -0.251300
     37 H1           5.2760     0.8560    -1.2440 ha         1 VIF       0.119000
     38 H2          -3.7230     0.3870     1.7940 h1         1 VIF       0.045200
     39 H3           6.0890    -2.4760    -0.0910 h1         1 VIF       0.068700
     40 H4           6.1740    -1.3780    -1.4640 h1         1 VIF       0.068700
     41 H5           4.5160     2.9660    -1.1990 ha         1 VIF       0.129000
     42 H6           3.0090     4.0040     1.2740 h1         1 VIF       0.048700
     43 H7           2.7120     0.5880     1.5910 hc         1 VIF       0.048700
     44 H8           4.2080     0.9800     2.4200 hc         1 VIF       0.048700
     45 H9           2.9870     2.2230     2.1660 hc         1 VIF       0.048700
     46 H10         -0.8700    -5.6370    -0.2810 hc         1 VIF       0.043033
     47 H11         -1.9240    -4.7800    -1.4070 hc         1 VIF       0.043033
     48 H12         -0.3690    -5.3830    -1.9540 hc         1 VIF       0.043033
     49 H13         -1.0490    -1.2730     1.7250 hc         1 VIF       0.046700
     50 H14          1.9890    -2.7740    -2.0360 ha         1 VIF       0.131000
     51 H16          1.4660    -4.4160     0.4860 ha         1 VIF       0.145000
     52 H18          3.9680    -1.9300    -2.0630 hn         1 VIF       0.297500
     53 H19         -0.4720     4.8200    -1.2220 hc         1 VIF       0.083200
     54 H20          0.0350     3.6200    -2.4080 hc         1 VIF       0.083200
     55 H21          4.9510     5.0840     0.6540 ho         1 VIF       0.410000
     56 H22         -0.2600    -2.9250    -1.5750 hc         1 VIF       0.076700
     57 H23         -1.1170    -3.6910     1.2350 h1         1 VIF       0.066700
     58 H24          1.3350     2.3930    -0.7780 h1         1 VIF       0.071700
     59 H25         -4.7150    -2.2540    -1.1930 h1         1 VIF       0.108700
     60 H26         -6.5570    -1.6810     0.2400 hc         1 VIF       0.072200
     61 H27         -5.9050    -3.0860     1.0810 hc         1 VIF       0.072200
     62 H28         -4.6100    -1.6550     2.5960 hc         1 VIF       0.061200
     63 H29          1.7100     5.3960    -0.3490 hc         1 VIF       0.066700
     64 H30          2.3920     4.4660    -1.6780 hc         1 VIF       0.066700
     65 H31          1.7600    -2.4460     1.6510 hc         1 VIF       0.040533
     66 H32          1.0990    -1.2350     2.7360 hc         1 VIF       0.040533
     67 H33          0.5060    -2.8890     2.8120 hc         1 VIF       0.040533
     68 H34          4.5060    -0.9590     1.0960 ha         1 VIF       0.136000
     69 H35          1.2040    -0.9290    -0.2930 hc         1 VIF       0.040533
     70 H36         -0.4660    -0.4950    -0.6630 hc         1 VIF       0.040533
     71 H37          0.3720     0.2920     0.6590 hc         1 VIF       0.040533
     72 H38         -3.9430     2.5540     0.7870 h4         1 VIF       0.068100
     73 H39         -5.2430     0.8220     0.9970 h1         1 VIF       0.045200
     74 H15         -6.1300    -0.7790     2.4790 hc         1 VIF       0.061200
     75 O            3.9960    -3.9430     0.3330 o          1 VIF      -0.593100
     76 O02         -3.5180    -3.9250     0.9300 o          1 VIF      -0.542000
@<TRIPOS>BOND
     1     1     5 1   
     2     1    31 2   
     3     1    37 1   
     4     2    13 1   
     5     2    28 1   
     6     2    38 1   
     7     2    73 1   
     8     3    13 1   
     9     3    18 2   
    10     3    33 1   
    11     4    16 1   
    12     4    31 1   
    13     4    39 1   
    14     4    40 1   
    15     5     6 2   
    16     5     8 1   
    17     6     7 1   
    18     6    41 1   
    19     7    20 1   
    20     7    29 1   
    21     7    42 1   
    22     8    43 1   
    23     8    44 1   
    24     8    45 1   
    25     9    21 1   
    26     9    46 1   
    27     9    47 1   
    28     9    48 1   
    29    10    33 1   
    30    10    35 2   
    31    11    23 1   
    32    11    30 1   
    33    11    32 1   
    34    11    49 1   
    35    12    15 2   
    36    12    17 1   
    37    12    50 1   
    38    13    26 1   
    39    14    23 1   
    40    14    25 1   
    41    15    21 1   
    42    15    51 1   
    43    16    17 1   
    44    16    52 1   
    45    17    75 2   
    46    19    24 1   
    47    19    35 1   
    48    19    53 1   
    49    19    54 1   
    50    20    55 1   
    51    21    23 1   
    52    21    56 1   
    53    22    34 1   
    54    22    35 1   
    55    23    57 1   
    56    24    29 1   
    57    24    36 1   
    58    24    58 1   
    59    25    26 1   
    60    25    76 2   
    61    26    27 1   
    62    26    59 1   
    63    27    28 1   
    64    27    60 1   
    65    27    61 1   
    66    28    62 1   
    67    28    74 1   
    68    29    63 1   
    69    29    64 1   
    70    30    65 1   
    71    30    66 1   
    72    30    67 1   
    73    31    68 1   
    74    32    69 1   
    75    32    70 1   
    76    32    71 1   
    77    33    34 2   
    78    34    72 1   
@<TRIPOS>SUBSTRUCTURE
     1 VIF         1 TEMP              0 ****  ****    0 ROOT
