@<TRIPOS>MOLECULE
VIG
   21    20     1     0     0
SMALL
No Charge or Current Charge


@<TRIPOS>ATOM
      1 C1           0.1040    -0.1200    -2.4790 c          1 VIG       0.717000
      2 O1           0.5460    -1.1660    -2.9290 o          1 VIG      -0.741000
      3 O2           0.2690     0.9670    -3.0110 o          1 VIG      -0.741000
      4 C6          -0.6480    -0.1660    -1.1360 c3         1 VIG      -0.209400
      5 C2           0.3490     0.0030     0.0460 c3         1 VIG      -0.089400
      6 C3          -0.2760    -0.1690     1.4550 c3         1 VIG       0.149500
      7 C4           0.7940    -0.1110     2.5780 c3         1 VIG      -0.067400
      8 C5           0.2580    -0.4290     3.9910 c3         1 VIG      -0.078100
      9 N3          -1.3260     0.8430     1.6720 n8         1 VIG      -1.011200
     10 H1C1        -1.1150    -1.1490    -0.9950 hc         1 VIG       0.014200
     11 H1C2        -1.3540     0.6720    -1.0700 hc         1 VIG       0.014200
     12 H2C1         0.8330     0.9860    -0.0250 hc         1 VIG       0.043700
     13 H2C2         1.1470    -0.7420    -0.0690 hc         1 VIG       0.043700
     14 H3          -0.7530    -1.1600     1.4900 h1         1 VIG       0.044700
     15 H4C1         1.2660     0.8800     2.5870 hc         1 VIG       0.031700
     16 H4C2         1.5870    -0.8320     2.3460 hc         1 VIG       0.031700
     17 H5C1         1.0790    -0.4270     4.7170 hc         1 VIG       0.022700
     18 H5C2        -0.4800     0.3160     4.3130 hc         1 VIG       0.022700
     19 H5C3        -0.2150    -1.4180     4.0120 hc         1 VIG       0.022700
     20 H3N1        -0.8890     1.7700     1.6750 hn         1 VIG       0.389000
     21 H3N2        -1.9190     0.8640     0.8360 hn         1 VIG       0.389000
@<TRIPOS>BOND
     1     1     2 1   
     2     1     3 1   
     3     1     4 1   
     4     4     5 1   
     5     4    10 1   
     6     4    11 1   
     7     5     6 1   
     8     5    12 1   
     9     5    13 1   
    10     6     7 1   
    11     6     9 1   
    12     6    14 1   
    13     7     8 1   
    14     7    15 1   
    15     7    16 1   
    16     8    17 1   
    17     8    18 1   
    18     8    19 1   
    19     9    20 1   
    20     9    21 1   
@<TRIPOS>SUBSTRUCTURE
     1 VIG         1 TEMP              0 ****  ****    0 ROOT
