@<TRIPOS>MOLECULE
VIG
   21    20     1     0     0
SMALL
bcc


@<TRIPOS>ATOM
      1 C1           0.1250    -0.1310    -2.4920 c          1 VIG       0.927600
      2 O1          -0.6160    -0.4320    -3.4520 o          1 VIG      -0.846300
      3 O2           1.3010     0.2770    -2.5710 o          1 VIG      -0.846300
      4 C6          -0.4980    -0.2770    -1.0910 c3         1 VIG      -0.209400
      5 C2           0.4180     0.0330     0.0810 c3         1 VIG      -0.089400
      6 C3          -0.2340    -0.1790     1.4520 c3         1 VIG       0.149500
      7 C4           0.7760     0.0760     2.5700 c3         1 VIG      -0.067400
      8 C5           0.2810    -0.3100     3.9550 c3         1 VIG      -0.078100
      9 N3          -1.4290     0.6260     1.6860 n8         1 VIG      -0.900800
     10 H1C1        -0.8860    -1.2990    -0.9960 hc         1 VIG       0.014200
     11 H1C2        -1.3850     0.3660    -1.0640 hc         1 VIG       0.014200
     12 H2C1         0.7750     1.0660     0.0150 hc         1 VIG       0.043700
     13 H2C2         1.3080    -0.6000     0.0190 hc         1 VIG       0.043700
     14 H3          -0.5460    -1.2300     1.5180 h1         1 VIG       0.044700
     15 H4C1         1.0540     1.1370     2.5580 hc         1 VIG       0.031700
     16 H4C2         1.6930    -0.4750     2.3410 hc         1 VIG       0.031700
     17 H5C1         1.0420    -0.1200     4.7140 hc         1 VIG       0.022700
     18 H5C2        -0.6110     0.2520     4.2290 hc         1 VIG       0.022700
     19 H5C3         0.0300    -1.3720     4.0010 hc         1 VIG       0.022700
     20 H3N1        -1.2040     1.6040     1.5340 hn         1 VIG       0.333800
     21 H3N2        -2.1360     0.4000     0.9970 hn         1 VIG       0.333800
@<TRIPOS>BOND
     1     1     2 1   
     2     1     3 1   
     3     1     4 1   
     4     4     5 1   
     5     4    10 1   
     6     4    11 1   
     7     5     6 1   
     8     5    12 1   
     9     5    13 1   
    10     6     7 1   
    11     6     9 1   
    12     6    14 1   
    13     7     8 1   
    14     7    15 1   
    15     7    16 1   
    16     8    17 1   
    17     8    18 1   
    18     8    19 1   
    19     9    20 1   
    20     9    21 1   
@<TRIPOS>SUBSTRUCTURE
     1 VIG         1 TEMP              0 ****  ****    0 ROOT
