@<TRIPOS>MOLECULE
VIH
   28    31     1     0     0
SMALL
No Charge or Current Charge


@<TRIPOS>ATOM
      1 C13        -13.1250     0.9010   -17.1660 cx         1 VIH      -0.121400
      2 C15        -11.5590    -2.4490   -17.5990 cc         1 VIH       0.453500
      3 C02        -13.8540    -3.3110   -17.8020 c          1 VIH       0.625600
      4 C03        -13.3890    -4.4500   -17.0050 cc         1 VIH      -0.371600
      5 C05        -13.0120    -6.5240   -15.6900 cc         1 VIH      -0.016000
      6 C07        -11.8830    -5.7490   -15.7910 cd         1 VIH      -0.111000
      7 C08        -12.1140    -4.5630   -16.5490 cd         1 VIH       0.102600
      8 C11        -13.2730    -1.1360   -18.8500 c3         1 VIH       0.142000
      9 C12        -13.9440    -0.0680   -17.9890 cx         1 VIH      -0.159700
     10 C14        -13.8850     1.3920   -18.3760 cx         1 VIH      -0.121400
     11 C18         -9.8890    -3.4890   -16.5000 cs         1 VIH       0.400400
     12 N09        -11.2180    -3.5550   -16.8570 n          1 VIH      -0.161500
     13 N10        -12.8720    -2.3260   -18.0650 n          1 VIH      -0.308300
     14 N16        -10.5530    -1.6520   -17.7650 n2         1 VIH      -0.532300
     15 N17         -9.5310    -2.2970   -17.0860 ns         1 VIH      -0.276400
     16 S04        -14.3910    -5.8090   -16.5280 ss         1 VIH       0.386000
     17 S19         -8.8650    -4.4860   -15.6230 s          1 VIH      -0.562400
     18 Cl1        -13.1220    -8.0390   -14.8470 cl         1 VIH      -0.117000
     19 H1         -12.0410     0.8490   -17.2380 hc         1 VIH       0.076700
     20 H2         -13.5020     1.1750   -16.1830 hc         1 VIH       0.076700
     21 H3         -10.9470    -6.0390   -15.3350 ha         1 VIH       0.196000
     22 H4         -13.9600    -1.4380   -19.6520 h1         1 VIH       0.077200
     23 H5         -12.3910    -0.7070   -19.3440 h1         1 VIH       0.077200
     24 H6         -14.8750    -0.4170   -17.5470 hc         1 VIH       0.094700
     25 H7         -13.3090     1.6690   -19.2560 hc         1 VIH       0.076700
     26 H8         -14.7720     1.9980   -18.2050 hc         1 VIH       0.076700
     27 H9          -8.5660    -1.9600   -16.9990 hn         1 VIH       0.511000
     28 O01        -15.0050    -3.2260   -18.2050 o          1 VIH      -0.512000
@<TRIPOS>BOND
     1     1     9 1   
     2     1    10 1   
     3     1    19 1   
     4     1    20 1   
     5     2    12 1   
     6     2    13 1   
     7     2    14 2   
     8     3     4 1   
     9     3    13 1   
    10     3    28 2   
    11     4     7 2   
    12     4    16 1   
    13     5     6 2   
    14     5    16 1   
    15     5    18 1   
    16     6     7 1   
    17     6    21 1   
    18     7    12 1   
    19     8     9 1   
    20     8    13 1   
    21     8    22 1   
    22     8    23 1   
    23     9    10 1   
    24     9    24 1   
    25    10    25 1   
    26    10    26 1   
    27    11    12 1   
    28    11    15 1   
    29    11    17 2   
    30    14    15 1   
    31    15    27 1   
@<TRIPOS>SUBSTRUCTURE
     1 VIH         1 TEMP              0 ****  ****    0 ROOT
