@<TRIPOS>MOLECULE
VIH
   28    31     1     0     0
SMALL
abcg2


@<TRIPOS>ATOM
      1 C13        -13.0720     0.8600   -17.1640 cx         1 VIH      -0.121400
      2 C15        -11.6190    -2.4670   -17.5740 cc         1 VIH       0.453500
      3 C02        -13.8670    -3.3260   -17.7820 c          1 VIH       0.625600
      4 C03        -13.3890    -4.4490   -17.0060 cc         1 VIH      -0.371600
      5 C05        -13.0350    -6.5100   -15.7440 cc         1 VIH      -0.016000
      6 C07        -11.8840    -5.7720   -15.7900 cd         1 VIH      -0.111000
      7 C08        -12.1030    -4.5820   -16.5240 cd         1 VIH       0.102600
      8 C11        -13.2800    -1.1530   -18.8110 c3         1 VIH       0.142000
      9 C12        -13.9230    -0.0980   -17.9530 cx         1 VIH      -0.159700
     10 C14        -13.8180     1.3390   -18.3820 cx         1 VIH      -0.121400
     11 C18         -9.8660    -3.3810   -16.5100 cs         1 VIH       0.400400
     12 N09        -11.2130    -3.5590   -16.8200 n          1 VIH      -0.161500
     13 N10        -12.8990    -2.3550   -18.0380 n          1 VIH      -0.308300
     14 N16        -10.6440    -1.6270   -17.7610 n2         1 VIH      -0.532300
     15 N17         -9.5890    -2.2110   -17.1050 ns         1 VIH      -0.276400
     16 S04        -14.3730    -5.7930   -16.5660 ss         1 VIH       0.386000
     17 S19         -8.8420    -4.3590   -15.6210 s          1 VIH      -0.562400
     18 CL1        -13.2240    -8.0240   -14.9640 cl         1 VIH      -0.117000
     19 H1         -11.9990     0.7560   -17.2400 hc         1 VIH       0.076700
     20 H2         -13.4320     1.1670   -16.1910 hc         1 VIH       0.076700
     21 H3         -10.9510    -6.0590   -15.3360 ha         1 VIH       0.196000
     22 H4         -13.9610    -1.4920   -19.5880 h1         1 VIH       0.077200
     23 H5         -12.3750    -0.7750   -19.2820 h1         1 VIH       0.077200
     24 H6         -14.8600    -0.4000   -17.5010 hc         1 VIH       0.094700
     25 H7         -13.2400     1.5540   -19.2720 hc         1 VIH       0.076700
     26 H8         -14.6830     1.9720   -18.2410 hc         1 VIH       0.076700
     27 H9          -8.6910    -1.7520   -17.0900 hn         1 VIH       0.511000
     28 O01        -15.0130    -3.2090   -18.1960 o          1 VIH      -0.512000
@<TRIPOS>BOND
     1     1     9 1   
     2     1    10 1   
     3     1    19 1   
     4     1    20 1   
     5     2    12 1   
     6     2    13 1   
     7     2    14 2   
     8     3     4 1   
     9     3    13 1   
    10     3    28 2   
    11     4     7 2   
    12     4    16 1   
    13     5     6 2   
    14     5    16 1   
    15     5    18 1   
    16     6     7 1   
    17     6    21 1   
    18     7    12 1   
    19     8     9 1   
    20     8    13 1   
    21     8    22 1   
    22     8    23 1   
    23     9    10 1   
    24     9    24 1   
    25    10    25 1   
    26    10    26 1   
    27    11    12 1   
    28    11    15 1   
    29    11    17 2   
    30    14    15 1   
    31    15    27 1   
@<TRIPOS>SUBSTRUCTURE
     1 VIH         1 TEMP              0 ****  ****    0 ROOT
