@<TRIPOS>MOLECULE
VII
   33    35     1     0     0
SMALL
No Charge or Current Charge


@<TRIPOS>ATOM
      1 C17          3.2760    -0.6430    -1.0580 ca         1 VII      -0.108750
      2 C16          4.5530    -1.2320    -1.0810 ca         1 VII      -0.132000
      3 C15          4.9940    -1.9970     0.0110 ca         1 VII      -0.162000
      4 C14          4.1570    -2.1780     1.1240 ca         1 VII      -0.132000
      5 C13          2.8790    -1.5910     1.1470 ca         1 VII      -0.108750
      6 C12          2.4360    -0.8090     0.0620 ca         1 VII      -0.046500
      7 C10          1.0880    -0.2400     0.0770 cc         1 VII       0.113500
      8 O11          0.0100    -1.0740    -0.0090 os         1 VII      -0.307000
      9 C9           0.7250     1.0950     0.0470 cd         1 VII      -0.107600
     10 C18          1.7130     2.2340     0.0770 c          1 VII       0.749600
     11 O22          2.8780     2.0140     0.3750 o          1 VII      -0.723750
     12 O23          1.3550     3.3610    -0.2230 o          1 VII      -0.723750
     13 C8          -0.7210     1.0900    -0.0460 cd         1 VII      -0.107600
     14 C19         -1.7190     2.2210    -0.0660 c          1 VII       0.749600
     15 O20         -2.8820     1.9950    -0.3660 o          1 VII      -0.723750
     16 O21         -1.3700     3.3480     0.2440 o          1 VII      -0.723750
     17 C7          -1.0740    -0.2480    -0.0870 cc         1 VII       0.113500
     18 C1          -2.4170    -0.8270    -0.0770 ca         1 VII      -0.046500
     19 C6          -2.8540    -1.6030    -1.1690 ca         1 VII      -0.108750
     20 C5          -4.1270    -2.2010    -1.1510 ca         1 VII      -0.132000
     21 C4          -4.9660    -2.0360    -0.0360 ca         1 VII      -0.162000
     22 C3          -4.5310    -1.2770     1.0620 ca         1 VII      -0.132000
     23 C2          -3.2580    -0.6780     1.0450 ca         1 VII      -0.108750
     24 H17          2.9350    -0.0580    -1.9100 ha         1 VII       0.146750
     25 H16          5.1980    -1.0960    -1.9470 ha         1 VII       0.083500
     26 H15          5.9810    -2.4530    -0.0080 ha         1 VII       0.076000
     27 H14          4.4950    -2.7760     1.9670 ha         1 VII       0.083500
     28 H13          2.2300    -1.7410     2.0070 ha         1 VII       0.146750
     29 H6          -2.2040    -1.7410    -2.0300 ha         1 VII       0.146750
     30 H5          -4.4610    -2.7940    -1.9990 ha         1 VII       0.083500
     31 H4          -5.9500    -2.5000    -0.0220 ha         1 VII       0.076000
     32 H3          -5.1770    -1.1540     1.9290 ha         1 VII       0.083500
     33 H2          -2.9220    -0.0980     1.9010 ha         1 VII       0.146750
@<TRIPOS>BOND
     1     1     2 ar  
     2     1     6 ar  
     3     1    24 1   
     4     2     3 ar  
     5     2    25 1   
     6     3     4 ar  
     7     3    26 1   
     8     4     5 ar  
     9     4    27 1   
    10     5     6 ar  
    11     5    28 1   
    12     6     7 1   
    13     7     8 1   
    14     7     9 2   
    15     8    17 1   
    16     9    10 1   
    17     9    13 1   
    18    10    11 1   
    19    10    12 1   
    20    13    14 1   
    21    13    17 2   
    22    14    15 1   
    23    14    16 1   
    24    17    18 1   
    25    18    19 ar  
    26    18    23 ar  
    27    19    20 ar  
    28    19    29 1   
    29    20    21 ar  
    30    20    30 1   
    31    21    22 ar  
    32    21    31 1   
    33    22    23 ar  
    34    22    32 1   
    35    23    33 1   
@<TRIPOS>SUBSTRUCTURE
     1 VII         1 TEMP              0 ****  ****    0 ROOT
