@<TRIPOS>MOLECULE
VII
   33    35     1     0     0
SMALL
bcc


@<TRIPOS>ATOM
      1 C17          3.5570    -0.1740    -0.5320 ca         1 VII      -0.126750
      2 C16          4.7660    -0.8520    -0.5230 ca         1 VII      -0.150000
      3 C15          4.8320    -2.1760    -0.1080 ca         1 VII      -0.180000
      4 C14          3.6680    -2.8180     0.2970 ca         1 VII      -0.150000
      5 C13          2.4570    -2.1450     0.2960 ca         1 VII      -0.126750
      6 C12          2.3810    -0.8070    -0.1150 ca         1 VII      -0.046500
      7 C10          1.1040    -0.1040    -0.0990 cc         1 VII       0.223200
      8 O11          0.0100    -0.8960    -0.0100 os         1 VII      -0.395800
      9 C9           0.7140     1.2060    -0.0640 cd         1 VII      -0.172900
     10 C18          1.5290     2.4790    -0.0540 c          1 VII       0.960200
     11 O22          2.2680     2.7010    -1.0320 o          1 VII      -0.829050
     12 O23          1.3650     3.1990     0.9460 o          1 VII      -0.829050
     13 C8          -0.7110     1.1990     0.0700 cd         1 VII      -0.172900
     14 C19         -1.5350     2.4670     0.0790 c          1 VII       0.960200
     15 O20         -2.2780     2.6680     1.0600 o          1 VII      -0.829050
     16 O21         -1.3740     3.2040    -0.9090 o          1 VII      -0.829050
     17 C7          -1.0910    -0.1140     0.0880 cc         1 VII       0.223200
     18 C1          -2.3620    -0.8270     0.0970 ca         1 VII      -0.046500
     19 C6          -2.4270    -2.1630    -0.3210 ca         1 VII      -0.126750
     20 C5          -3.6340    -2.8440    -0.3290 ca         1 VII      -0.150000
     21 C4          -4.8030    -2.2130     0.0760 ca         1 VII      -0.180000
     22 C3          -4.7470    -0.8910     0.4980 ca         1 VII      -0.150000
     23 C2          -3.5440    -0.2040     0.5140 ca         1 VII      -0.126750
     24 H17          3.5160     0.8490    -0.8790 ha         1 VII       0.164750
     25 H16          5.6630    -0.3420    -0.8490 ha         1 VII       0.101500
     26 H15          5.7770    -2.7020    -0.1000 ha         1 VII       0.094000
     27 H14          3.7030    -3.8490     0.6240 ha         1 VII       0.101500
     28 H13          1.5690    -2.6660     0.6300 ha         1 VII       0.164750
     29 H6          -1.5350    -2.6760    -0.6540 ha         1 VII       0.164750
     30 H5          -3.6600    -3.8750    -0.6600 ha         1 VII       0.101500
     31 H4          -5.7450    -2.7470     0.0630 ha         1 VII       0.094000
     32 H3          -5.6490    -0.3890     0.8240 ha         1 VII       0.101500
     33 H2          -3.5110     0.8170     0.8660 ha         1 VII       0.164750
@<TRIPOS>BOND
     1     1     2 ar  
     2     1     6 ar  
     3     1    24 1   
     4     2     3 ar  
     5     2    25 1   
     6     3     4 ar  
     7     3    26 1   
     8     4     5 ar  
     9     4    27 1   
    10     5     6 ar  
    11     5    28 1   
    12     6     7 1   
    13     7     8 1   
    14     7     9 2   
    15     8    17 1   
    16     9    10 1   
    17     9    13 1   
    18    10    11 1   
    19    10    12 1   
    20    13    14 1   
    21    13    17 2   
    22    14    15 1   
    23    14    16 1   
    24    17    18 1   
    25    18    19 ar  
    26    18    23 ar  
    27    19    20 ar  
    28    19    29 1   
    29    20    21 ar  
    30    20    30 1   
    31    21    22 ar  
    32    21    31 1   
    33    22    23 ar  
    34    22    32 1   
    35    23    33 1   
@<TRIPOS>SUBSTRUCTURE
     1 VII         1 TEMP              0 ****  ****    0 ROOT
