@<TRIPOS>MOLECULE
VIJ
   47    48     1     0     0
SMALL
No Charge or Current Charge


@<TRIPOS>ATOM
      1 C10        157.8930   201.3130   174.2400 ca         1 VIJ      -0.114000
      2 C13        158.9270   202.8110   175.8740 ca         1 VIJ      -0.044800
      3 C15        158.6850   201.8490   176.8780 ca         1 VIJ      -0.097500
      4 C17        160.0590   204.5830   177.3590 ce         1 VIJ      -0.241200
      5 C20        160.7160   205.9130   177.5380 c          1 VIJ       0.596300
      6 C21        161.7850   208.5510   178.8410 ca         1 VIJ      -0.176000
      7 C22        162.8680   208.2500   181.4070 ca         1 VIJ      -0.064000
      8 C24        162.9330   209.4930   180.7600 ca         1 VIJ      -0.176000
      9 C05        157.9390   197.8250   174.9430 c3         1 VIJ      -0.069400
     10 C06        159.0760   197.9040   173.8940 c3         1 VIJ      -0.075400
     11 C08        160.0710   196.7200   173.9410 c3         1 VIJ      -0.074400
     12 C09        157.6540   200.3560   175.2430 ca         1 VIJ      -0.086300
     13 C11        158.0530   200.6330   176.5630 ca         1 VIJ      -0.114000
     14 C12        159.4590   195.3540   173.5660 c3         1 VIJ      -0.088100
     15 C14        158.5240   202.5290   174.5530 ca         1 VIJ      -0.097500
     16 C16        159.5890   204.0980   176.1700 cf         1 VIJ      -0.143200
     17 C18        161.7190   207.2880   179.4740 ca         1 VIJ       0.002000
     18 C19        162.2590   207.1360   180.7820 ca         1 VIJ      -0.198600
     19 C23        162.3900   209.6440   179.4790 ca         1 VIJ      -0.106000
     20 C25        162.2190   205.8150   181.5330 c          1 VIJ       0.724600
     21 N04        161.1110   206.1670   178.8420 ns         1 VIJ      -0.157000
     22 O01        160.8880   206.6820   176.5980 o          1 VIJ      -0.647100
     23 O02        163.1300   205.5670   182.3100 o          1 VIJ      -0.708500
     24 O03        161.2760   205.0580   181.3490 o          1 VIJ      -0.708500
     25 H1         157.5930   201.1140   173.2140 ha         1 VIJ       0.104500
     26 H2         158.9810   202.0320   177.9060 ha         1 VIJ       0.119000
     27 H3         159.9640   203.9830   178.2610 ha         1 VIJ       0.196000
     28 H6         163.4020   210.3400   181.2550 ha         1 VIJ       0.089000
     29 H7         157.3510   196.9150   174.7760 hc         1 VIJ       0.037200
     30 H8         158.3740   197.7400   175.9470 hc         1 VIJ       0.037200
     31 H9         159.6420   198.8300   174.0510 hc         1 VIJ       0.041700
     32 H10        158.6400   197.9700   172.8900 hc         1 VIJ       0.041700
     33 H13        160.5130   196.6550   174.9430 hc         1 VIJ       0.036700
     34 H14        160.8960   196.9320   173.2490 hc         1 VIJ       0.036700
     35 H15        157.8750   199.9030   177.3500 ha         1 VIJ       0.104500
     36 H16        160.2390   194.5840   173.5360 hc         1 VIJ       0.027700
     37 H17        158.7060   195.0430   174.2990 hc         1 VIJ       0.027700
     38 H18        158.9860   195.3990   172.5770 hc         1 VIJ       0.027700
     39 H19        158.7010   203.2530   173.7620 ha         1 VIJ       0.119000
     40 H20        159.7100   204.7420   175.2940 ha         1 VIJ       0.189000
     41 H21        162.4330   210.6100   178.9800 ha         1 VIJ       0.085000
     42 H22        160.9210   205.4080   179.4870 hn         1 VIJ       0.233000
     43 C07        156.9750   199.0330   174.9070 c3         1 VIJ      -0.028100
     44 H4         161.3620   208.7080   177.8540 ha         1 VIJ       0.129000
     45 H11        156.5030   199.0820   173.9180 hc         1 VIJ       0.041700
     46 H12        156.1600   198.8510   175.6190 hc         1 VIJ       0.041700
     47 H5         163.2900   208.1540   182.4060 ha         1 VIJ       0.126000
@<TRIPOS>BOND
     1     1    12 ar  
     2     1    15 ar  
     3     1    25 1   
     4     2     3 ar  
     5     2    15 ar  
     6     2    16 1   
     7     3    13 ar  
     8     3    26 1   
     9     4     5 1   
    10     4    16 2   
    11     4    27 1   
    12     5    21 1   
    13     5    22 2   
    14     6    17 ar  
    15     6    19 ar  
    16     6    44 1   
    17     7     8 ar  
    18     7    18 ar  
    19     7    47 1   
    20     8    19 ar  
    21     8    28 1   
    22     9    10 1   
    23     9    29 1   
    24     9    30 1   
    25     9    43 1   
    26    10    11 1   
    27    10    31 1   
    28    10    32 1   
    29    11    14 1   
    30    11    33 1   
    31    11    34 1   
    32    12    13 ar  
    33    12    43 1   
    34    13    35 1   
    35    14    36 1   
    36    14    37 1   
    37    14    38 1   
    38    15    39 1   
    39    16    40 1   
    40    17    18 ar  
    41    17    21 1   
    42    18    20 1   
    43    19    41 1   
    44    20    23 1   
    45    20    24 1   
    46    21    42 1   
    47    43    45 1   
    48    43    46 1   
@<TRIPOS>SUBSTRUCTURE
     1 VIJ         1 TEMP              0 ****  ****    0 ROOT
