@<TRIPOS>MOLECULE
VIJ
   47    48     1     0     0
SMALL
abcg2


@<TRIPOS>ATOM
      1 C10        157.9860   201.2010   174.6480 ca         1 VIJ      -0.114000
      2 C13        159.2250   202.6310   176.1630 ca         1 VIJ      -0.044800
      3 C15        159.1110   201.6360   177.1400 ca         1 VIJ      -0.097500
      4 C17        160.3100   204.4020   177.5610 ce         1 VIJ      -0.241200
      5 C20        160.9430   205.7400   177.6390 c          1 VIJ       0.596300
      6 C21        162.1970   208.3380   178.5810 ca         1 VIJ      -0.176000
      7 C22        162.4430   208.5750   181.3240 ca         1 VIJ      -0.064000
      8 C24        162.8640   209.6150   180.5120 ca         1 VIJ      -0.176000
      9 C05        158.1030   197.7710   174.9880 c3         1 VIJ      -0.069400
     10 C06        158.8670   197.9870   173.6880 c3         1 VIJ      -0.075400
     11 C08        159.7820   196.8260   173.3040 c3         1 VIJ      -0.074400
     12 C09        157.8630   200.2160   175.6230 ca         1 VIJ      -0.086300
     13 C11        158.4450   200.4550   176.8710 ca         1 VIJ      -0.114000
     14 C12        159.0430   195.5330   172.9800 c3         1 VIJ      -0.088100
     15 C14        158.6610   202.3830   174.9100 ca         1 VIJ      -0.097500
     16 C16        159.8860   203.9110   176.3910 cf         1 VIJ      -0.143200
     17 C18        161.7670   207.2880   179.4020 ca         1 VIJ       0.002000
     18 C19        161.8940   207.4050   180.8060 ca         1 VIJ      -0.198600
     19 C23        162.7370   209.4860   179.1370 ca         1 VIJ      -0.106000
     20 C25        161.4570   206.3210   181.7910 c          1 VIJ       0.724600
     21 N04        161.2110   206.1130   178.9120 ns         1 VIJ      -0.157000
     22 O01        161.1760   206.4130   176.6420 o          1 VIJ      -0.647100
     23 O02        161.6500   206.5360   182.9930 o          1 VIJ      -0.708500
     24 O03        160.9270   205.2810   181.3110 o          1 VIJ      -0.708500
     25 H1         157.5470   201.0440   173.6700 ha         1 VIJ       0.104500
     26 H2         159.5460   201.7800   178.1220 ha         1 VIJ       0.119000
     27 H3         160.1850   203.8490   178.4850 ha         1 VIJ       0.196000
     28 H6         163.2850   210.5130   180.9450 ha         1 VIJ       0.089000
     29 H7         157.5060   196.8580   174.9250 hc         1 VIJ       0.037200
     30 H8         158.8120   197.6170   175.8090 hc         1 VIJ       0.037200
     31 H9         159.4700   198.8950   173.7670 hc         1 VIJ       0.041700
     32 H10        158.1530   198.1650   172.8750 hc         1 VIJ       0.041700
     33 H13        160.5000   196.6480   174.1110 hc         1 VIJ       0.036700
     34 H14        160.3740   197.1230   172.4350 hc         1 VIJ       0.036700
     35 H15        158.3660   199.7020   177.6470 ha         1 VIJ       0.104500
     36 H16        159.7330   194.7620   172.6350 hc         1 VIJ       0.027700
     37 H17        158.5180   195.1320   173.8470 hc         1 VIJ       0.027700
     38 H18        158.3050   195.6930   172.1920 hc         1 VIJ       0.027700
     39 H19        158.7420   203.1350   174.1330 ha         1 VIJ       0.119000
     40 H20        160.0190   204.5260   175.5060 ha         1 VIJ       0.189000
     41 H21        163.0590   210.2860   178.4810 ha         1 VIJ       0.085000
     42 H22        160.9590   205.4890   179.7040 hn         1 VIJ       0.233000
     43 C07        157.1550   198.9220   175.3460 c3         1 VIJ      -0.028100
     44 H4         162.1080   208.2580   177.5110 ha         1 VIJ       0.129000
     45 H11        156.4390   199.0620   174.5320 hc         1 VIJ       0.041700
     46 H12        156.5750   198.6340   176.2260 hc         1 VIJ       0.041700
     47 H5         162.5380   208.6630   182.3980 ha         1 VIJ       0.126000
@<TRIPOS>BOND
     1     1    12 ar  
     2     1    15 ar  
     3     1    25 1   
     4     2     3 ar  
     5     2    15 ar  
     6     2    16 1   
     7     3    13 ar  
     8     3    26 1   
     9     4     5 1   
    10     4    16 2   
    11     4    27 1   
    12     5    21 1   
    13     5    22 2   
    14     6    17 ar  
    15     6    19 ar  
    16     6    44 1   
    17     7     8 ar  
    18     7    18 ar  
    19     7    47 1   
    20     8    19 ar  
    21     8    28 1   
    22     9    10 1   
    23     9    29 1   
    24     9    30 1   
    25     9    43 1   
    26    10    11 1   
    27    10    31 1   
    28    10    32 1   
    29    11    14 1   
    30    11    33 1   
    31    11    34 1   
    32    12    13 ar  
    33    12    43 1   
    34    13    35 1   
    35    14    36 1   
    36    14    37 1   
    37    14    38 1   
    38    15    39 1   
    39    16    40 1   
    40    17    18 ar  
    41    17    21 1   
    42    18    20 1   
    43    19    41 1   
    44    20    23 1   
    45    20    24 1   
    46    21    42 1   
    47    43    45 1   
    48    43    46 1   
@<TRIPOS>SUBSTRUCTURE
     1 VIJ         1 TEMP              0 ****  ****    0 ROOT
