@<TRIPOS>MOLECULE
VIK
   24    24     1     0     0
SMALL
abcg2


@<TRIPOS>ATOM
      1 O1          41.8560    28.7530    26.6920 o          1 VIK      -0.477000
      2 C1          41.3510    28.3570    25.6640 c          1 VIK       0.589100
      3 C5          42.6780    24.6720    22.5780 c5         1 VIK      -0.290400
      4 C6          42.5140    25.5810    25.1100 c5         1 VIK      -0.292400
      5 C4          42.7500    26.1870    22.7390 c5         1 VIK      -0.066400
      6 C3          41.9760    26.5250    24.0270 c5         1 VIK      -0.042700
      7 C2          42.1070    28.0030    24.4080 c3         1 VIK      -0.122400
      8 S           42.8860    24.0270    24.2530 s6         1 VIK       1.062000
      9 O2          44.2770    23.6640    24.4800 o          1 VIK      -0.516000
     10 O           40.0350    28.1710    25.5140 os         1 VIK      -0.453100
     11 C           39.2020    28.4700    26.6540 c3         1 VIK       0.151900
     12 H1          41.6960    24.3420    22.2420 h1         1 VIK       0.110700
     13 H2          43.4550    24.2370    21.9540 h1         1 VIK       0.110700
     14 H3          43.4590    25.9420    25.5180 h1         1 VIK       0.114700
     15 H4          41.8150    25.3660    25.9150 h1         1 VIK       0.114700
     16 H5          43.7880    26.5120    22.8350 hc         1 VIK       0.067200
     17 H6          42.3190    26.6870    21.8720 hc         1 VIK       0.067200
     18 H7          40.9200    26.3000    23.8630 hc         1 VIK       0.075700
     19 H8          43.1540    28.2640    24.5600 hc         1 VIK       0.077700
     20 H9          41.7150    28.6110    23.5880 hc         1 VIK       0.077700
     21 H10         38.1900    28.2360    26.3400 h1         1 VIK       0.052367
     22 H11         39.4910    27.8510    27.5020 h1         1 VIK       0.052367
     23 H12         39.2880    29.5230    26.9190 h1         1 VIK       0.052367
     24 O3          41.8700    23.0250    24.5360 o          1 VIK      -0.516000
@<TRIPOS>BOND
     1     1     2 2   
     2     2     7 1   
     3     2    10 1   
     4     3     5 1   
     5     3     8 1   
     6     3    12 1   
     7     3    13 1   
     8     4     6 1   
     9     4     8 1   
    10     4    14 1   
    11     4    15 1   
    12     5     6 1   
    13     5    16 1   
    14     5    17 1   
    15     6     7 1   
    16     6    18 1   
    17     7    19 1   
    18     7    20 1   
    19     8     9 2   
    20     8    24 2   
    21    10    11 1   
    22    11    21 1   
    23    11    22 1   
    24    11    23 1   
@<TRIPOS>SUBSTRUCTURE
     1 VIK         1 TEMP              0 ****  ****    0 ROOT
