@<TRIPOS>MOLECULE
VIK
   24    24     1     0     0
SMALL
No Charge or Current Charge


@<TRIPOS>ATOM
      1 O1          41.7120    28.1620    26.8560 o          1 VIK      -0.477000
      2 C1          41.2220    28.2240    25.7360 c          1 VIK       0.589100
      3 C5          42.6580    24.6360    22.5650 c5         1 VIK      -0.290400
      4 C6          42.8170    25.5740    25.0760 c5         1 VIK      -0.292400
      5 C4          42.7770    26.1830    22.7210 c5         1 VIK      -0.066400
      6 C3          42.0340    26.4690    24.0630 c5         1 VIK      -0.042700
      7 C2          42.0090    27.9710    24.4470 c3         1 VIK      -0.122400
      8 S           43.0430    23.9360    24.2370 s6         1 VIK       1.062000
      9 O2          44.4520    23.5290    24.3070 o          1 VIK      -0.516000
     10 O           39.8990    28.4810    25.4820 os         1 VIK      -0.453100
     11 C           39.0280    28.7170    26.6050 c3         1 VIK       0.151900
     12 H1          41.6390    24.3120    22.3250 h1         1 VIK       0.110700
     13 H2          43.3650    24.2050    21.8470 h1         1 VIK       0.110700
     14 H3          43.8250    25.9490    25.2850 h1         1 VIK       0.114700
     15 H4          42.2860    25.3940    26.0170 h1         1 VIK       0.114700
     16 H5          43.8250    26.5080    22.7630 hc         1 VIK       0.067200
     17 H6          42.3170    26.7090    21.8760 hc         1 VIK       0.067200
     18 H7          40.9860    26.1470    23.9890 hc         1 VIK       0.075700
     19 H8          43.0330    28.3400    24.5760 hc         1 VIK       0.077700
     20 H9          41.5140    28.5110    23.6310 hc         1 VIK       0.077700
     21 H10         38.0040    28.9100    26.2600 h1         1 VIK       0.052367
     22 H11         39.0030    27.8460    27.2720 h1         1 VIK       0.052367
     23 H12         39.3610    29.5890    27.1830 h1         1 VIK       0.052367
     24 O3          41.9840    23.0050    24.6450 o          1 VIK      -0.516000
@<TRIPOS>BOND
     1     1     2 2   
     2     2     7 1   
     3     2    10 1   
     4     3     5 1   
     5     3     8 1   
     6     3    12 1   
     7     3    13 1   
     8     4     6 1   
     9     4     8 1   
    10     4    14 1   
    11     4    15 1   
    12     5     6 1   
    13     5    16 1   
    14     5    17 1   
    15     6     7 1   
    16     6    18 1   
    17     7    19 1   
    18     7    20 1   
    19     8     9 2   
    20     8    24 2   
    21    10    11 1   
    22    11    21 1   
    23    11    22 1   
    24    11    23 1   
@<TRIPOS>SUBSTRUCTURE
     1 VIK         1 TEMP              0 ****  ****    0 ROOT
