@<TRIPOS>MOLECULE
VIL
   33    34     1     0     0
SMALL
No Charge or Current Charge


@<TRIPOS>ATOM
      1 C01        -14.4730    18.3300    72.6760 c3         1 VIL      -0.117600
      2 C02        -14.0890    17.2440    73.7170 c6         1 VIL       0.548400
      3 C04        -15.9660    15.7670    73.7880 c2         1 VIL       0.815100
      4 C06        -14.2480    15.1020    72.4390 c6         1 VIL       0.686900
      5 C08        -12.0720    15.8120    73.2910 ca         1 VIL       0.344000
      6 C09        -11.6860    14.7350    74.1100 ca         1 VIL      -0.155000
      7 C10        -10.3230    14.4490    74.3170 ca         1 VIL      -0.077000
      8 C11         -9.3400    15.2400    73.6990 ca         1 VIL       0.092000
      9 C12         -9.7170    16.3130    72.8750 ca         1 VIL      -0.077000
     10 C13        -11.0810    16.5960    72.6720 ca         1 VIL      -0.155000
     11 C17        -13.2190    17.9120    74.8220 c3         1 VIL      -0.117600
     12 N03        -15.2550    16.7190    74.3510 nu         1 VIL      -0.924400
     13 N05        -15.6340    15.1650    72.7480 n2         1 VIL      -0.750900
     14 N07        -13.4310    16.0940    73.0840 nh         1 VIL      -0.898400
     15 N15        -14.1560    15.3410    71.0560 n8         1 VIL      -1.014200
     16 N16        -17.1880    16.0470    74.1610 nv         1 VIL      -1.028200
     17 Cl14        -7.6370    14.8840    73.9550 cl         1 VIL      -0.219000
     18 H1         -14.9840    19.1730    73.1530 hc         1 VIL       0.050867
     19 H2         -13.5830    18.7230    72.1720 hc         1 VIL       0.050867
     20 H3         -15.1430    17.9360    71.9040 hc         1 VIL       0.050867
     21 H4         -13.8590    14.0920    72.6420 h3         1 VIL       0.032700
     22 H5         -12.4440    14.1260    74.5940 ha         1 VIL       0.119500
     23 H6         -10.0300    13.6180    74.9540 ha         1 VIL       0.127000
     24 H7          -8.9550    16.9230    72.3950 ha         1 VIL       0.127000
     25 H8         -11.3710    17.4230    72.0310 ha         1 VIL       0.119500
     26 H9         -12.9000    17.1880    75.5810 hc         1 VIL       0.050867
     27 H10        -12.3200    18.3770    74.4020 hc         1 VIL       0.050867
     28 H11        -13.7760    18.7040    75.3370 hc         1 VIL       0.050867
     29 H12        -15.1730    16.5900    75.3470 hn         1 VIL       0.466000
     30 H13        -13.1720    15.2090    70.8360 hn         1 VIL       0.405500
     31 H14        -14.6310    14.5520    70.6210 hn         1 VIL       0.405500
     32 H16        -17.8260    15.8260    73.4120 hn         1 VIL       0.469500
     33 H17        -17.2110    17.0140    74.4380 hn         1 VIL       0.469500
@<TRIPOS>BOND
     1     1     2 1   
     2     1    18 1   
     3     1    19 1   
     4     1    20 1   
     5     2    11 1   
     6     2    12 1   
     7     2    14 1   
     8     3    12 1   
     9     3    13 2   
    10     3    16 1   
    11     4    13 1   
    12     4    14 1   
    13     4    15 1   
    14     4    21 1   
    15     5     6 ar  
    16     5    10 ar  
    17     5    14 1   
    18     6     7 ar  
    19     6    22 1   
    20     7     8 ar  
    21     7    23 1   
    22     8     9 ar  
    23     8    17 1   
    24     9    10 ar  
    25     9    24 1   
    26    10    25 1   
    27    11    26 1   
    28    11    27 1   
    29    11    28 1   
    30    12    29 1   
    31    15    30 1   
    32    15    31 1   
    33    16    32 1   
    34    16    33 1   
@<TRIPOS>SUBSTRUCTURE
     1 VIL         1 TEMP              0 ****  ****    0 ROOT
