@<TRIPOS>MOLECULE
VIL
   33    34     1     0     0
SMALL
abcg2


@<TRIPOS>ATOM
      1 C01        -14.2800    18.2840    72.6570 c3         1 VIL      -0.117600
      2 C02        -14.0190    17.2890    73.8020 c6         1 VIL       0.548400
      3 C04        -16.1190    16.0790    73.6850 c2         1 VIL       0.815100
      4 C06        -14.2680    15.0270    72.7100 c6         1 VIL       0.686900
      5 C08        -12.0290    15.8050    73.3800 ca         1 VIL       0.344000
      6 C09        -11.5360    14.5470    73.7620 ca         1 VIL      -0.155000
      7 C10        -10.1730    14.2850    73.7960 ca         1 VIL      -0.077000
      8 C11         -9.2730    15.2800    73.4470 ca         1 VIL       0.092000
      9 C12         -9.7250    16.5290    73.0460 ca         1 VIL      -0.077000
     10 C13        -11.0880    16.7770    72.9980 ca         1 VIL      -0.155000
     11 C17        -13.2120    17.9510    74.9200 c3         1 VIL      -0.117600
     12 N03        -15.2920    16.8810    74.4250 nu         1 VIL      -0.924400
     13 N05        -15.6810    15.2510    72.8030 n2         1 VIL      -0.750900
     14 N07        -13.4000    16.0530    73.3140 nh         1 VIL      -0.898400
     15 N15        -13.9400    14.8990    71.2770 n8         1 VIL      -1.014200
     16 N16        -17.4600    16.1530    73.9730 nv         1 VIL      -1.028200
     17 CL14        -7.5490    14.9520    73.4960 cl         1 VIL      -0.219000
     18 H1         -14.7930    19.1730    73.0340 hc         1 VIL       0.050867
     19 H2         -13.3430    18.5960    72.1990 hc         1 VIL       0.050867
     20 H3         -14.8980    17.8240    71.8870 hc         1 VIL       0.050867
     21 H4         -14.0540    14.0840    73.2310 h3         1 VIL       0.032700
     22 H5         -12.2170    13.7610    74.0560 ha         1 VIL       0.119500
     23 H6          -9.8180    13.3120    74.1090 ha         1 VIL       0.127000
     24 H7          -9.0220    17.2960    72.7480 ha         1 VIL       0.127000
     25 H8         -11.4250    17.7350    72.6330 ha         1 VIL       0.119500
     26 H9         -12.9410    17.2170    75.6780 hc         1 VIL       0.050867
     27 H10        -12.3130    18.4360    74.5520 hc         1 VIL       0.050867
     28 H11        -13.8370    18.7180    75.3810 hc         1 VIL       0.050867
     29 H12        -15.7400    17.6150    74.9540 hn         1 VIL       0.466000
     30 H13        -13.0040    14.5150    71.1840 hn         1 VIL       0.405500
     31 H14        -14.5700    14.2090    70.8780 hn         1 VIL       0.405500
     32 H16        -18.0460    15.6360    73.3350 hn         1 VIL       0.469500
     33 H17        -17.8280    17.0570    74.2310 hn         1 VIL       0.469500
@<TRIPOS>BOND
     1     1     2 1   
     2     1    18 1   
     3     1    19 1   
     4     1    20 1   
     5     2    11 1   
     6     2    12 1   
     7     2    14 1   
     8     3    12 1   
     9     3    13 2   
    10     3    16 1   
    11     4    13 1   
    12     4    14 1   
    13     4    15 1   
    14     4    21 1   
    15     5     6 ar  
    16     5    10 ar  
    17     5    14 1   
    18     6     7 ar  
    19     6    22 1   
    20     7     8 ar  
    21     7    23 1   
    22     8     9 ar  
    23     8    17 1   
    24     9    10 ar  
    25     9    24 1   
    26    10    25 1   
    27    11    26 1   
    28    11    27 1   
    29    11    28 1   
    30    12    29 1   
    31    15    30 1   
    32    15    31 1   
    33    16    32 1   
    34    16    33 1   
@<TRIPOS>SUBSTRUCTURE
     1 VIL         1 TEMP              0 ****  ****    0 ROOT
