@<TRIPOS>MOLECULE
VIM
   25    26     1     0     0
SMALL
No Charge or Current Charge


@<TRIPOS>ATOM
      1 C1          -2.0650    -4.3810    25.1230 ca         1 VIM       0.156000
      2 C2          -2.4700    -3.6870    26.2780 ca         1 VIM      -0.119600
      3 C3          -3.7790    -3.8550    26.7660 ca         1 VIM       0.134100
      4 C4          -4.6700    -4.7290    26.1120 ca         1 VIM      -0.199000
      5 C5          -4.2630    -5.4200    24.9600 ca         1 VIM      -0.114000
      6 C6          -2.9600    -5.2430    24.4660 ca         1 VIM      -0.148000
      7 C8          -5.4100    -2.5950    28.0350 ca         1 VIM       0.117100
      8 C9          -6.0420    -1.9720    26.9370 ca         1 VIM      -0.100000
      9 C10         -7.3010    -1.3640    27.1050 ca         1 VIM      -0.150000
     10 C11         -7.9190    -1.3720    28.3660 ca         1 VIM       0.140000
     11 C12         -7.2870    -1.9790    29.4630 ca         1 VIM      -0.150000
     12 C13         -6.0290    -2.5880    29.2980 ca         1 VIM      -0.100000
     13 C15         -1.5240    -2.7710    26.9800 c          1 VIM       0.738600
     14 F14         -9.1250    -0.7870    28.5250 f          1 VIM      -0.194000
     15 O7          -4.1730    -3.1860    27.9040 os         1 VIM      -0.218200
     16 O16         -0.7990    -3.2460    27.8440 o          1 VIM      -0.696500
     17 O17         -1.5150    -1.5930    26.6510 o          1 VIM      -0.696500
     18 Cl1         -0.4380    -4.1930    24.4700 cl         1 VIM      -0.222000
     19 H041        -5.6760    -4.8760    26.4980 ha         1 VIM       0.104000
     20 H051        -4.9520    -6.0930    24.4530 ha         1 VIM       0.091000
     21 H061        -2.6420    -5.7770    23.5740 ha         1 VIM       0.106000
     22 H091        -5.5610    -1.9560    25.9620 ha         1 VIM       0.138500
     23 H101        -7.7940    -0.8860    26.2620 ha         1 VIM       0.121500
     24 H121        -7.7700    -1.9760    30.4370 ha         1 VIM       0.121500
     25 H131        -5.5340    -3.0570    30.1440 ha         1 VIM       0.138500
@<TRIPOS>BOND
     1     1     2 ar  
     2     1     6 ar  
     3     1    18 1   
     4     2     3 ar  
     5     2    13 1   
     6     3     4 ar  
     7     3    15 1   
     8     4     5 ar  
     9     4    19 1   
    10     5     6 ar  
    11     5    20 1   
    12     6    21 1   
    13     7     8 ar  
    14     7    12 ar  
    15     7    15 1   
    16     8     9 ar  
    17     8    22 1   
    18     9    10 ar  
    19     9    23 1   
    20    10    11 ar  
    21    10    14 1   
    22    11    12 ar  
    23    11    24 1   
    24    12    25 1   
    25    13    16 1   
    26    13    17 1   
@<TRIPOS>SUBSTRUCTURE
     1 VIM         1 TEMP              0 ****  ****    0 ROOT
