@<TRIPOS>MOLECULE
VIM
   25    26     1     0     0
SMALL
abcg2


@<TRIPOS>ATOM
      1 C1          -2.0830    -4.5900    25.2970 ca         1 VIM       0.156000
      2 C2          -2.4290    -3.6550    26.2570 ca         1 VIM      -0.119600
      3 C3          -3.7710    -3.6040    26.6370 ca         1 VIM       0.134100
      4 C4          -4.7190    -4.4520    26.0820 ca         1 VIM      -0.199000
      5 C5          -4.3240    -5.3730    25.1200 ca         1 VIM      -0.114000
      6 C6          -3.0020    -5.4530    24.7170 ca         1 VIM      -0.148000
      7 C8          -5.3700    -2.3500    27.8410 ca         1 VIM       0.117100
      8 C9          -6.0800    -1.5810    26.9280 ca         1 VIM      -0.100000
      9 C10         -7.3840    -1.2050    27.2110 ca         1 VIM      -0.150000
     10 C11         -7.9480    -1.6040    28.4090 ca         1 VIM       0.140000
     11 C12         -7.2550    -2.3680    29.3270 ca         1 VIM      -0.150000
     12 C13         -5.9530    -2.7480    29.0340 ca         1 VIM      -0.100000
     13 C15         -1.4050    -2.7130    26.8940 c          1 VIM       0.738600
     14 F14         -9.2060    -1.2330    28.6890 f          1 VIM      -0.194000
     15 O7          -4.0630    -2.6830    27.6010 os         1 VIM      -0.218200
     16 O16         -0.9070    -3.1140    27.9570 o          1 VIM      -0.696500
     17 O17         -1.1900    -1.6620    26.2740 o          1 VIM      -0.696500
     18 CL1         -0.4200    -4.6880    24.7900 cl         1 VIM      -0.222000
     19 H041        -5.7560    -4.4100    26.3880 ha         1 VIM       0.104000
     20 H051        -5.0590    -6.0370    24.6850 ha         1 VIM       0.091000
     21 H061        -2.6920    -6.1700    23.9680 ha         1 VIM       0.106000
     22 H091        -5.6180    -1.2710    25.9990 ha         1 VIM       0.138500
     23 H101        -7.9490    -0.6040    26.5120 ha         1 VIM       0.121500
     24 H121        -7.7210    -2.6660    30.2580 ha         1 VIM       0.121500
     25 H131        -5.3910    -3.3470    29.7390 ha         1 VIM       0.138500
@<TRIPOS>BOND
     1     1     2 ar  
     2     1     6 ar  
     3     1    18 1   
     4     2     3 ar  
     5     2    13 1   
     6     3     4 ar  
     7     3    15 1   
     8     4     5 ar  
     9     4    19 1   
    10     5     6 ar  
    11     5    20 1   
    12     6    21 1   
    13     7     8 ar  
    14     7    12 ar  
    15     7    15 1   
    16     8     9 ar  
    17     8    22 1   
    18     9    10 ar  
    19     9    23 1   
    20    10    11 ar  
    21    10    14 1   
    22    11    12 ar  
    23    11    24 1   
    24    12    25 1   
    25    13    16 1   
    26    13    17 1   
@<TRIPOS>SUBSTRUCTURE
     1 VIM         1 TEMP              0 ****  ****    0 ROOT
