@<TRIPOS>MOLECULE
VIO
   33    32     1     0     0
SMALL
No Charge or Current Charge


@<TRIPOS>ATOM
      1 N           -3.2130    -1.7620    -0.8380 n8         1 VIO      -1.017200
      2 CA          -3.1160    -0.6800     0.2100 c3         1 VIO       0.012500
      3 C           -4.4540     0.1090     0.5250 c          1 VIO       0.693000
      4 O           -5.1010     0.5530    -0.4150 o          1 VIO      -0.715500
      5 OXT         -4.8450     0.1460     1.6840 o          1 VIO      -0.715500
      6 CB          -1.9740     0.3180    -0.1270 c3         1 VIO      -0.047400
      7 CG          -0.5570    -0.3070    -0.1320 c3         1 VIO      -0.093400
      8 CD           0.5500     0.7290    -0.4160 c3         1 VIO       0.025600
      9 NE           1.8750     0.0850    -0.4050 nu         1 VIO      -0.398700
     10 CZ           3.0770     0.6980    -0.7320 c2         1 VIO       0.417800
     11 CH1          4.3400    -0.1240    -0.6270 c3         1 VIO      -0.173700
     12 NH2          3.1460     2.0400    -0.4200 nv         1 VIO      -0.564800
     13 C1           4.7840    -0.4060     0.8320 c3         1 VIO      -0.074400
     14 C2           6.0730    -1.2470     0.9150 c3         1 VIO      -0.095100
     15 H           -3.9350    -2.4380    -0.5560 hn         1 VIO       0.394500
     16 HN2         -3.6110    -1.3490    -1.6920 hn         1 VIO       0.394500
     17 HA          -2.8350    -1.1800     1.1480 h1         1 VIO       0.039700
     18 HB1         -1.9910     1.1260     0.6160 hc         1 VIO       0.047200
     19 HB2         -2.1730     0.7860    -1.0990 hc         1 VIO       0.047200
     20 HG1         -0.5100    -1.0980    -0.8900 hc         1 VIO       0.059700
     21 HG2         -0.3700    -0.7790     0.8410 hc         1 VIO       0.059700
     22 HD1          0.5090     1.5170     0.3490 h1         1 VIO       0.068700
     23 HD2          0.3690     1.1900    -1.3960 h1         1 VIO       0.068700
     24 HE           1.9040    -0.9270    -0.3160 hn         1 VIO       0.380000
     25 HH11         5.1520     0.3880    -1.1560 hc         1 VIO       0.090200
     26 HH12         4.1980    -1.0780    -1.1510 hc         1 VIO       0.090200
     27 HH21         2.3020     2.5790    -0.5550 hn         1 VIO       0.371500
     28 HH22         4.0200     2.5110    -0.6220 hn         1 VIO       0.371500
     29 H11          3.9820    -0.9320     1.3670 hc         1 VIO       0.055700
     30 H12          4.9440     0.5440     1.3570 hc         1 VIO       0.055700
     31 H21          6.9060    -0.7310     0.4230 hc         1 VIO       0.051033
     32 H22          6.3490    -1.4210     1.9620 hc         1 VIO       0.051033
     33 H23          5.9340    -2.2210     0.4320 hc         1 VIO       0.051033
@<TRIPOS>BOND
     1     1     2 1   
     2     1    15 1   
     3     1    16 1   
     4     2     3 1   
     5     2     6 1   
     6     2    17 1   
     7     3     4 1   
     8     3     5 1   
     9     6     7 1   
    10     6    18 1   
    11     6    19 1   
    12     7     8 1   
    13     7    20 1   
    14     7    21 1   
    15     8     9 1   
    16     8    22 1   
    17     8    23 1   
    18     9    10 2   
    19     9    24 1   
    20    10    11 1   
    21    10    12 1   
    22    11    13 1   
    23    11    25 1   
    24    11    26 1   
    25    12    27 1   
    26    12    28 1   
    27    13    14 1   
    28    13    29 1   
    29    13    30 1   
    30    14    31 1   
    31    14    32 1   
    32    14    33 1   
@<TRIPOS>SUBSTRUCTURE
     1 VIO         1 TEMP              0 ****  ****    0 ROOT
