@<TRIPOS>MOLECULE
VIO
   33    32     1     0     0
SMALL
abcg2


@<TRIPOS>ATOM
      1 N           -3.1350    -1.5530    -1.0490 n8         1 VIO      -1.017200
      2 CA          -3.1220    -0.6760     0.1120 c3         1 VIO       0.012500
      3 C           -4.4300     0.1190     0.3560 c          1 VIO       0.693000
      4 O           -5.2750     0.1360    -0.5600 o          1 VIO      -0.715500
      5 OXT         -4.5180     0.7020     1.4580 o          1 VIO      -0.715500
      6 CB          -1.9500     0.3050     0.0210 c3         1 VIO      -0.047400
      7 CG          -0.5970    -0.3820    -0.0960 c3         1 VIO      -0.093400
      8 CD           0.5280     0.6360    -0.1670 c3         1 VIO       0.025600
      9 NE           1.8180    -0.0290    -0.2870 nu         1 VIO      -0.398700
     10 CZ           2.9600     0.5720    -0.5030 c2         1 VIO       0.417800
     11 CH1          4.2180    -0.2340    -0.5350 c3         1 VIO      -0.173700
     12 NH2          3.0390     1.8750    -0.6420 nv         1 VIO      -0.564800
     13 C1           4.8790    -0.2780     0.8480 c3         1 VIO      -0.074400
     14 C2           6.1490    -1.1140     0.8260 c3         1 VIO      -0.095100
     15 H           -3.7970    -2.3010    -0.8800 hn         1 VIO       0.394500
     16 HN2         -3.5380    -1.0350    -1.8220 hn         1 VIO       0.394500
     17 HA          -2.9510    -1.3050     0.9940 h1         1 VIO       0.039700
     18 HB1         -1.9620     0.9440     0.9080 hc         1 VIO       0.047200
     19 HB2         -2.0970     0.9690    -0.8400 hc         1 VIO       0.047200
     20 HG1         -0.5780    -1.0140    -0.9860 hc         1 VIO       0.059700
     21 HG2         -0.4440    -1.0380     0.7670 hc         1 VIO       0.059700
     22 HD1          0.5290     1.2670     0.7260 h1         1 VIO       0.068700
     23 HD2          0.3840     1.2880    -1.0330 h1         1 VIO       0.068700
     24 HE           1.8410    -1.0320    -0.1800 hn         1 VIO       0.380000
     25 HH11         4.9010     0.2060    -1.2630 hc         1 VIO       0.090200
     26 HH12         3.9900    -1.2450    -0.8750 hc         1 VIO       0.090200
     27 HH21         2.2440     2.4900    -0.5680 hn         1 VIO       0.371500
     28 HH22         3.9270     2.3090    -0.8310 hn         1 VIO       0.371500
     29 H11          4.1750    -0.6910     1.5730 hc         1 VIO       0.055700
     30 H12          5.1100     0.7380     1.1750 hc         1 VIO       0.055700
     31 H21          6.8820    -0.7030     0.1310 hc         1 VIO       0.051033
     32 H22          6.6080    -1.1430     1.8140 hc         1 VIO       0.051033
     33 H23          5.9420    -2.1430     0.5260 hc         1 VIO       0.051033
@<TRIPOS>BOND
     1     1     2 1   
     2     1    15 1   
     3     1    16 1   
     4     2     3 1   
     5     2     6 1   
     6     2    17 1   
     7     3     4 1   
     8     3     5 1   
     9     6     7 1   
    10     6    18 1   
    11     6    19 1   
    12     7     8 1   
    13     7    20 1   
    14     7    21 1   
    15     8     9 1   
    16     8    22 1   
    17     8    23 1   
    18     9    10 2   
    19     9    24 1   
    20    10    11 1   
    21    10    12 1   
    22    11    13 1   
    23    11    25 1   
    24    11    26 1   
    25    12    27 1   
    26    12    28 1   
    27    13    14 1   
    28    13    29 1   
    29    13    30 1   
    30    14    31 1   
    31    14    32 1   
    32    14    33 1   
@<TRIPOS>SUBSTRUCTURE
     1 VIO         1 TEMP              0 ****  ****    0 ROOT
