@<TRIPOS>MOLECULE
VIP
   25    25     1     0     0
SMALL
abcg2


@<TRIPOS>ATOM
      1 C7          -1.6170    12.6620   -34.6420 ca         1 VIP       0.133100
      2 C8          -2.2230    13.9020   -34.8010 ca         1 VIP      -0.202000
      3 O1          -2.2120    11.6440   -33.9470 oh         1 VIP      -0.540100
      4 C1          -2.3050    16.2840   -35.6480 c3         1 VIP       0.219500
      5 C5           0.2600    13.4250   -35.9150 ca         1 VIP      -0.077000
      6 C6          -0.3630    12.4150   -35.2000 ca         1 VIP      -0.136000
      7 C4          -0.3480    14.6690   -36.0820 ca         1 VIP      -0.127000
      8 C3          -1.5990    14.9250   -35.5220 ca         1 VIP      -0.058300
      9 C2          -3.6880    16.1020   -36.2900 c3         1 VIP       0.171600
     10 C           -1.5000    17.2950   -36.4630 c3         1 VIP      -0.079100
     11 N           -2.5580    16.8950   -34.3250 n8         1 VIP      -0.999200
     12 O           -3.5450    15.4850   -37.5690 oh         1 VIP      -0.663000
     13 H1          -3.1970    14.0610   -34.3510 ha         1 VIP       0.104000
     14 H2          -3.0740    11.9300   -33.6150 ho         1 VIP       0.460000
     15 H3           1.2340    13.2430   -36.3530 ha         1 VIP       0.115000
     16 H4           0.1020    11.4470   -35.0680 ha         1 VIP       0.129000
     17 H5           0.1660    15.4300   -36.6500 ha         1 VIP       0.118000
     18 H6          -4.1530    17.0870   -36.3840 h1         1 VIP       0.028200
     19 H7          -4.3190    15.4880   -35.6380 h1         1 VIP       0.028200
     20 H8          -0.5360    17.4980   -35.9940 hc         1 VIP       0.045700
     21 H9          -1.3220    16.9400   -37.4770 hc         1 VIP       0.045700
     22 H10         -2.0580    18.2300   -36.5180 hc         1 VIP       0.045700
     23 H11         -3.0260    16.2330   -33.7150 hn         1 VIP       0.398500
     24 H12         -1.6670    17.1010   -33.8830 hn         1 VIP       0.398500
     25 H14         -4.4220    15.3960   -37.9590 ho         1 VIP       0.442000
@<TRIPOS>BOND
     1     1     2 ar  
     2     1     3 1   
     3     1     6 ar  
     4     2     8 ar  
     5     2    13 1   
     6     3    14 1   
     7     4     8 1   
     8     4     9 1   
     9     4    10 1   
    10     4    11 1   
    11     5     6 ar  
    12     5     7 ar  
    13     5    15 1   
    14     6    16 1   
    15     7     8 ar  
    16     7    17 1   
    17     9    12 1   
    18     9    18 1   
    19     9    19 1   
    20    10    20 1   
    21    10    21 1   
    22    10    22 1   
    23    11    23 1   
    24    11    24 1   
    25    12    25 1   
@<TRIPOS>SUBSTRUCTURE
     1 VIP         1 TEMP              0 ****  ****    0 ROOT
