@<TRIPOS>MOLECULE
VIP
   25    25     1     0     0
SMALL
No Charge or Current Charge


@<TRIPOS>ATOM
      1 C7          -1.6070    12.6400   -34.6080 ca         1 VIP       0.133100
      2 C8          -2.2310    13.8870   -34.7750 ca         1 VIP      -0.202000
      3 O1          -2.2280    11.6550   -33.9000 oh         1 VIP      -0.540100
      4 C1          -2.3250    16.2910   -35.6660 c3         1 VIP       0.219500
      5 C5           0.2960    13.4150   -35.8950 ca         1 VIP      -0.077000
      6 C6          -0.3450    12.4020   -35.1670 ca         1 VIP      -0.136000
      7 C4          -0.3250    14.6650   -36.0650 ca         1 VIP      -0.127000
      8 C3          -1.6040    14.9250   -35.5100 ca         1 VIP      -0.058300
      9 C2          -3.7330    16.1040   -36.3450 c3         1 VIP       0.171600
     10 C           -1.5070    17.3450   -36.4610 c3         1 VIP      -0.079100
     11 N           -2.5010    16.8500   -34.3070 n8         1 VIP      -0.999200
     12 O           -3.6310    15.5460   -37.6690 oh         1 VIP      -0.663000
     13 H1          -3.2090    14.0520   -34.3310 ha         1 VIP       0.104000
     14 H2          -3.0940    11.9970   -33.5910 ho         1 VIP       0.460000
     15 H3           1.2770    13.2320   -36.3290 ha         1 VIP       0.115000
     16 H4           0.1350    11.4360   -35.0360 ha         1 VIP       0.129000
     17 H5           0.2080    15.4180   -36.6370 ha         1 VIP       0.118000
     18 H6          -4.2360    17.0790   -36.3930 h1         1 VIP       0.028200
     19 H7          -4.3590    15.4560   -35.7170 h1         1 VIP       0.028200
     20 H8          -0.5450    17.5530   -35.9770 hc         1 VIP       0.045700
     21 H9          -1.3100    17.0030   -37.4840 hc         1 VIP       0.045700
     22 H10         -2.0560    18.2920   -36.5310 hc         1 VIP       0.045700
     23 H11         -2.9200    16.1250   -33.7170 hn         1 VIP       0.398500
     24 H12         -1.5720    16.9740   -33.8920 hn         1 VIP       0.398500
     25 H14         -4.5490    15.4460   -38.0080 ho         1 VIP       0.442000
@<TRIPOS>BOND
     1     1     2 ar  
     2     1     3 1   
     3     1     6 ar  
     4     2     8 ar  
     5     2    13 1   
     6     3    14 1   
     7     4     8 1   
     8     4     9 1   
     9     4    10 1   
    10     4    11 1   
    11     5     6 ar  
    12     5     7 ar  
    13     5    15 1   
    14     6    16 1   
    15     7     8 ar  
    16     7    17 1   
    17     9    12 1   
    18     9    18 1   
    19     9    19 1   
    20    10    20 1   
    21    10    21 1   
    22    10    22 1   
    23    11    23 1   
    24    11    24 1   
    25    12    25 1   
@<TRIPOS>SUBSTRUCTURE
     1 VIP         1 TEMP              0 ****  ****    0 ROOT
