@<TRIPOS>MOLECULE
VIQ
   46    47     1     0     0
SMALL
bcc


@<TRIPOS>ATOM
      1 O2           1.0980    -2.1850    -1.4680 o          1 VIQ      -0.609800
      2 S            0.5730    -2.0570    -0.1220 sy         1 VIQ       1.288200
      3 O3           0.1830    -3.2780     0.5670 o          1 VIQ      -0.609800
      4 N1           1.7860    -1.3760     0.7930 nu         1 VIQ      -0.653500
      5 C1           2.3020    -0.1400     0.3650 cc         1 VIQ      -0.107700
      6 C2           1.8550     1.1310     0.6840 cd         1 VIQ      -0.088600
      7 C6           0.7650     1.5930     1.5800 c3         1 VIQ      -0.033800
      8 N2           2.6550     1.9680     0.0060 na         1 VIQ       0.118400
      9 C3           2.6180     3.4110     0.0380 c3         1 VIQ       0.040600
     10 N3           3.5790     1.3320    -0.7240 nd         1 VIQ      -0.527800
     11 C4           3.3820     0.0450    -0.5190 cc         1 VIQ       0.373600
     12 C5           4.2030    -1.0000    -1.1890 c3         1 VIQ      -0.122400
     13 C7          -0.7850    -0.9000    -0.1370 ca         1 VIQ      -0.324500
     14 C8          -1.6580    -0.8630     0.9750 ca         1 VIQ       0.046700
     15 C16         -1.4190    -1.6400     2.2440 c3         1 VIQ      -0.067800
     16 C9          -2.7880    -0.0470     0.9410 ca         1 VIQ      -0.142300
     17 C10         -3.7880    -0.0420     2.0670 c3         1 VIQ      -0.037800
     18 C11         -2.9820     0.7950    -0.1630 ca         1 VIQ       0.198100
     19 O1          -4.0660     1.5820    -0.1340 os         1 VIQ      -0.316900
     20 C15         -4.3320     2.4380    -1.2290 c3         1 VIQ       0.124700
     21 C12         -2.0700     0.8060    -1.2070 ca         1 VIQ      -0.262000
     22 C13         -0.9630    -0.0360    -1.2290 ca         1 VIQ       0.077700
     23 C14         -0.0690     0.1030    -2.4330 c3         1 VIQ      -0.064800
     24 H1           1.6900    -1.5290     1.7900 hn         1 VIQ       0.433800
     25 H61C         1.1160     2.3460     2.2870 hc         1 VIQ       0.053700
     26 H62C        -0.0630     2.0240     1.0150 hc         1 VIQ       0.053700
     27 H63C         0.3710     0.7600     2.1570 hc         1 VIQ       0.053700
     28 H31C         2.9350     3.7940     1.0070 h1         1 VIQ       0.058033
     29 H32C         3.2930     3.7840    -0.7270 h1         1 VIQ       0.058033
     30 H33C         1.6140     3.7740    -0.1730 h1         1 VIQ       0.058033
     31 H51C         3.7320    -1.3360    -2.1140 hc         1 VIQ       0.057033
     32 H52C         5.1930    -0.6210    -1.4350 hc         1 VIQ       0.057033
     33 H53C         4.3150    -1.8740    -0.5490 hc         1 VIQ       0.057033
     34 H161        -0.3680    -1.7560     2.4870 hc         1 VIQ       0.055367
     35 H162        -1.8680    -1.1260     3.0890 hc         1 VIQ       0.055367
     36 H163        -1.8520    -2.6400     2.1990 hc         1 VIQ       0.055367
     37 H101        -3.4280     0.5290     2.9260 hc         1 VIQ       0.044700
     38 H102        -4.7330     0.3970     1.7620 hc         1 VIQ       0.044700
     39 H103        -3.9980    -1.0520     2.4170 hc         1 VIQ       0.044700
     40 H12         -2.2060     1.4800    -2.0410 ha         1 VIQ       0.136000
     41 H151        -3.5450     3.1830    -1.3630 h1         1 VIQ       0.044700
     42 H152        -4.4560     1.8800    -2.1600 h1         1 VIQ       0.044700
     43 H153        -5.2640     2.9480    -0.9980 h1         1 VIQ       0.044700
     44 H141        -0.1120    -0.7700    -3.0800 hc         1 VIQ       0.062033
     45 H142        -0.3920     0.9630    -3.0170 hc         1 VIQ       0.062033
     46 H143         0.9740     0.2610    -2.1640 hc         1 VIQ       0.062033
@<TRIPOS>BOND
     1     1     2 2   
     2     2     3 2   
     3     2     4 1   
     4     2    13 1   
     5     4     5 1   
     6     4    24 1   
     7     5     6 2   
     8     5    11 1   
     9     6     7 1   
    10     6     8 1   
    11     7    25 1   
    12     7    26 1   
    13     7    27 1   
    14     8     9 1   
    15     8    10 1   
    16     9    28 1   
    17     9    29 1   
    18     9    30 1   
    19    10    11 2   
    20    11    12 1   
    21    12    31 1   
    22    12    32 1   
    23    12    33 1   
    24    13    14 ar  
    25    13    22 ar  
    26    14    15 1   
    27    14    16 ar  
    28    15    34 1   
    29    15    35 1   
    30    15    36 1   
    31    16    17 1   
    32    16    18 ar  
    33    17    37 1   
    34    17    38 1   
    35    17    39 1   
    36    18    19 1   
    37    18    21 ar  
    38    19    20 1   
    39    20    41 1   
    40    20    42 1   
    41    20    43 1   
    42    21    22 ar  
    43    21    40 1   
    44    22    23 1   
    45    23    44 1   
    46    23    45 1   
    47    23    46 1   
@<TRIPOS>SUBSTRUCTURE
     1 VIQ         1 TEMP              0 ****  ****    0 ROOT
