@<TRIPOS>MOLECULE
VIQ
   46    47     1     0     0
SMALL
No Charge or Current Charge


@<TRIPOS>ATOM
      1 O2           1.1990    -2.4530    -1.4260 o          1 VIQ      -0.539000
      2 S            0.6430    -2.1970    -0.0970 sy         1 VIQ       1.146600
      3 O3           0.3470    -3.3050     0.8120 o          1 VIQ      -0.539000
      4 N1           1.8790    -1.3820     0.7100 nu         1 VIQ      -0.847100
      5 C1           2.2960    -0.1080     0.3570 cc         1 VIQ       0.096000
      6 C2           1.9090     1.0870     0.8820 cd         1 VIQ      -0.139300
      7 C6           0.9190     1.4000     1.9790 c3         1 VIQ      -0.033800
      8 N2           2.6160     2.0480     0.1430 na         1 VIQ       0.139800
      9 C3           2.5310     3.5080     0.2980 c3         1 VIQ       0.069900
     10 N3           3.4590     1.4890    -0.8100 nd         1 VIQ      -0.527800
     11 C4           3.2470     0.1960    -0.6550 cc         1 VIQ       0.308300
     12 C5           3.9730    -0.8380    -1.4750 c3         1 VIQ      -0.122400
     13 C7          -0.7490    -0.9970    -0.1460 ca         1 VIQ      -0.324500
     14 C8          -1.6270    -0.8430     0.9800 ca         1 VIQ       0.046700
     15 C16         -1.3850    -1.5830     2.3100 c3         1 VIQ      -0.067800
     16 C9          -2.7500     0.0300     0.8940 ca         1 VIQ      -0.142300
     17 C10         -3.7590     0.1480     2.0510 c3         1 VIQ      -0.037800
     18 C11         -2.9500     0.8050    -0.2650 ca         1 VIQ       0.198100
     19 O1          -4.0270     1.6750    -0.3140 os         1 VIQ      -0.340100
     20 C15         -4.3080     2.5120    -1.4500 c3         1 VIQ       0.147900
     21 C12         -2.0530     0.7010    -1.3350 ca         1 VIQ      -0.244000
     22 C13         -0.9650    -0.1820    -1.2980 ca         1 VIQ       0.077700
     23 C14         -0.0710    -0.1750    -2.5390 c3         1 VIQ      -0.064800
     24 H1           1.5770    -1.4580     1.6710 hn         1 VIQ       0.489000
     25 H61C         1.2350     2.2690     2.5680 hc         1 VIQ       0.053700
     26 H62C        -0.0700     1.6190     1.5610 hc         1 VIQ       0.053700
     27 H63C         0.8130     0.5600     2.6740 hc         1 VIQ       0.053700
     28 H31C         2.9580     3.7970     1.2650 h1         1 VIQ       0.058033
     29 H32C         3.0860     4.0050    -0.5060 h1         1 VIQ       0.058033
     30 H33C         1.4800     3.8180     0.2560 h1         1 VIQ       0.058033
     31 H51C         3.4170    -1.0630    -2.3920 hc         1 VIQ       0.057033
     32 H52C         4.9680    -0.4820    -1.7620 hc         1 VIQ       0.057033
     33 H53C         4.1020    -1.7700    -0.9140 hc         1 VIQ       0.057033
     34 H161        -0.3250    -1.6390     2.5720 hc         1 VIQ       0.055367
     35 H162        -1.8350    -1.0840     3.1730 hc         1 VIQ       0.055367
     36 H163        -1.7900    -2.6010     2.2740 hc         1 VIQ       0.055367
     37 H101        -3.3500     0.7550     2.8670 hc         1 VIQ       0.044700
     38 H102        -4.7090     0.6060     1.7520 hc         1 VIQ       0.044700
     39 H103        -4.0230    -0.8360     2.4560 hc         1 VIQ       0.044700
     40 H12         -2.1970     1.3060    -2.2230 ha         1 VIQ       0.118000
     41 H151        -3.4750     3.2000    -1.6430 h1         1 VIQ       0.044700
     42 H152        -4.4820     1.9060    -2.3490 h1         1 VIQ       0.044700
     43 H153        -5.2080     3.1120    -1.2670 h1         1 VIQ       0.044700
     44 H141        -0.1750    -1.1050    -3.1110 hc         1 VIQ       0.062033
     45 H142        -0.3250     0.6400    -3.2260 hc         1 VIQ       0.062033
     46 H143         0.9820    -0.0310    -2.2810 hc         1 VIQ       0.062033
@<TRIPOS>BOND
     1     1     2 2   
     2     2     3 2   
     3     2     4 1   
     4     2    13 1   
     5     4     5 1   
     6     4    24 1   
     7     5     6 2   
     8     5    11 1   
     9     6     7 1   
    10     6     8 1   
    11     7    25 1   
    12     7    26 1   
    13     7    27 1   
    14     8     9 1   
    15     8    10 1   
    16     9    28 1   
    17     9    29 1   
    18     9    30 1   
    19    10    11 2   
    20    11    12 1   
    21    12    31 1   
    22    12    32 1   
    23    12    33 1   
    24    13    14 ar  
    25    13    22 ar  
    26    14    15 1   
    27    14    16 ar  
    28    15    34 1   
    29    15    35 1   
    30    15    36 1   
    31    16    17 1   
    32    16    18 ar  
    33    17    37 1   
    34    17    38 1   
    35    17    39 1   
    36    18    19 1   
    37    18    21 ar  
    38    19    20 1   
    39    20    41 1   
    40    20    42 1   
    41    20    43 1   
    42    21    22 ar  
    43    21    40 1   
    44    22    23 1   
    45    23    44 1   
    46    23    45 1   
    47    23    46 1   
@<TRIPOS>SUBSTRUCTURE
     1 VIQ         1 TEMP              0 ****  ****    0 ROOT
