@<TRIPOS>MOLECULE
VIR
   73    75     1     0     0
SMALL
No Charge or Current Charge


@<TRIPOS>ATOM
      1 C1          -0.0930     0.4110    -3.3520 ce         1 VIR      -0.024600
      2 C10          4.6130    -0.3380     0.1700 cc         1 VIR       0.434300
      3 C12          3.5590     1.0200    -1.1080 cc         1 VIR       0.146900
      4 C13          5.2300    -0.7060     1.4770 c3         1 VIR      -0.215700
      5 C14          4.9130     0.3430     2.5370 c          1 VIR       0.592100
      6 C16          3.4320     0.5650     2.8560 c3         1 VIR      -0.183400
      7 C17          2.9710    -0.0610     4.1750 c3         1 VIR       0.224500
      8 C19          1.4730     0.1010     4.2730 c2         1 VIR      -0.263200
      9 C2          -0.2720     1.0170    -4.5340 c2         1 VIR      -0.219200
     10 C20          0.7840     1.0130     4.9940 ce         1 VIR      -0.060200
     11 C21          1.4580     2.0240     5.9060 c3         1 VIR      -0.060900
     12 C22         -0.6680     1.1530     4.8220 ce         1 VIR      -0.160000
     13 C23         -1.5370     0.1220     4.7400 c2         1 VIR      -0.237200
     14 C24         -3.0300     0.2570     4.5490 c3         1 VIR       0.143200
     15 C26         -3.2530     0.7080     2.0810 c          1 VIR       0.610300
     16 C28         -3.8220     0.1410     0.8250 ce         1 VIR      -0.294200
     17 C29         -3.6890     0.7050    -0.4000 c2         1 VIR      -0.134200
     18 C3           1.0940     1.5210    -5.0040 c5         1 VIR      -0.069200
     19 C30         -4.3180     0.1670    -1.6760 c3         1 VIR      -0.055500
     20 C31         -4.7280     1.3230    -2.6230 c3         1 VIR      -0.080100
     21 C32         -3.4500    -0.9400    -2.3660 c3         1 VIR       0.188300
     22 C33         -4.1810    -1.8010    -3.4500 c3         1 VIR      -0.062700
     23 C34         -3.2240    -2.8340    -4.1020 c3         1 VIR      -0.090600
     24 C35         -5.4410    -2.5290    -2.9120 c3         1 VIR      -0.090600
     25 C37         -1.1290    -0.1830    -2.4060 c          1 VIR       0.626300
     26 C4           2.0680     1.3610    -3.7760 c5         1 VIR       0.096000
     27 C6           1.8790    -0.5880    -2.1850 c          1 VIR       0.551600
     28 C8           3.0680    -0.2480    -1.3180 cd         1 VIR       0.184500
     29 N25         -3.4100    -0.1010     3.1830 ns         1 VIR      -0.506900
     30 N5           1.2640     0.4630    -2.9210 n          1 VIR      -0.330000
     31 N9           3.7690    -1.1130    -0.4820 nd         1 VIR      -0.621000
     32 O11          4.5550     0.9730    -0.1840 os         1 VIR      -0.255000
     33 O18          3.2760    -1.4490     4.1780 oh         1 VIR      -0.653000
     34 O27         -2.7030     1.7980     2.1290 o          1 VIR      -0.603100
     35 O36         -2.3400    -0.3060    -3.0400 os         1 VIR      -0.448100
     36 O38         -0.9290    -0.5010    -1.2400 o          1 VIR      -0.451000
     37 O7           1.4340    -1.7320    -2.2480 o          1 VIR      -0.523100
     38 H12          3.2790     1.9940    -1.4790 h4         1 VIR       0.070100
     39 H131         4.7560    -1.6430     1.7860 hc         1 VIR       0.100700
     40 H132         6.3120    -0.8330     1.3730 hc         1 VIR       0.100700
     41 H161         3.2390     1.6430     2.9020 hc         1 VIR       0.085200
     42 H162         2.8190     0.1100     2.0710 hc         1 VIR       0.085200
     43 H17          3.4750     0.4390     5.0140 h1         1 VIR       0.046700
     44 H19          0.9310    -0.5630     3.5980 ha         1 VIR       0.190000
     45 HC2         -1.2300     1.1450    -5.0420 ha         1 VIR       0.216000
     46 H211         0.7590     2.7910     6.2590 hc         1 VIR       0.043367
     47 H212         1.8790     1.5340     6.7920 hc         1 VIR       0.043367
     48 H213         2.2760     2.5440     5.3920 hc         1 VIR       0.043367
     49 H22         -1.0490     2.1760     4.8020 ha         1 VIR       0.179000
     50 H23         -1.1870    -0.9100     4.7910 ha         1 VIR       0.172000
     51 H241        -3.5560    -0.4070     5.2470 h1         1 VIR       0.055200
     52 H242        -3.3530     1.2870     4.7550 h1         1 VIR       0.055200
     53 H28         -4.3770    -0.7890     0.9380 ha         1 VIR       0.171000
     54 H29         -3.1230     1.6320    -0.5240 ha         1 VIR       0.199000
     55 HC31         1.4410     0.9220    -5.8540 hc         1 VIR       0.065200
     56 HC32         1.0470     2.5610    -5.3470 hc         1 VIR       0.065200
     57 H30         -5.2550    -0.3060    -1.3630 hc         1 VIR       0.059700
     58 H311        -5.3770     2.0340    -2.0980 hc         1 VIR       0.040033
     59 H312        -3.8500     1.8710    -2.9860 hc         1 VIR       0.040033
     60 H313        -5.2820     0.9470    -3.4910 hc         1 VIR       0.040033
     61 H32         -3.1000    -1.6400    -1.5930 h1         1 VIR       0.071700
     62 H33         -4.5130    -1.1290    -4.2510 hc         1 VIR       0.059700
     63 H341        -3.7500    -3.4270    -4.8600 hc         1 VIR       0.039033
     64 H342        -2.3810    -2.3400    -4.6000 hc         1 VIR       0.039033
     65 H343        -2.8220    -3.5220    -3.3490 hc         1 VIR       0.039033
     66 H351        -5.1990    -3.1220    -2.0220 hc         1 VIR       0.039033
     67 H352        -6.2350    -1.8190    -2.6540 hc         1 VIR       0.039033
     68 H353        -5.8520    -3.2050    -3.6710 hc         1 VIR       0.039033
     69 HC41         3.0360     0.9290    -4.0640 h1         1 VIR       0.055200
     70 HC42         2.2310     2.3320    -3.2920 h1         1 VIR       0.055200
     71 H25         -3.8720    -0.9890     3.0320 hn         1 VIR       0.311500
     72 H18          2.8790    -1.8170     4.9970 ho         1 VIR       0.446000
     73 O15          5.7760     1.0900     2.9800 o          1 VIR      -0.506100
@<TRIPOS>BOND
     1     1     9 2   
     2     1    25 1   
     3     1    30 1   
     4     2     4 1   
     5     2    31 2   
     6     2    32 1   
     7     3    28 2   
     8     3    32 1   
     9     3    38 1   
    10     4     5 1   
    11     4    39 1   
    12     4    40 1   
    13     5     6 1   
    14     5    73 2   
    15     6     7 1   
    16     6    41 1   
    17     6    42 1   
    18     7     8 1   
    19     7    33 1   
    20     7    43 1   
    21     8    10 2   
    22     8    44 1   
    23     9    18 1   
    24     9    45 1   
    25    10    11 1   
    26    10    12 1   
    27    11    46 1   
    28    11    47 1   
    29    11    48 1   
    30    12    13 2   
    31    12    49 1   
    32    13    14 1   
    33    13    50 1   
    34    14    29 1   
    35    14    51 1   
    36    14    52 1   
    37    15    16 1   
    38    15    29 1   
    39    15    34 2   
    40    16    17 2   
    41    16    53 1   
    42    17    19 1   
    43    17    54 1   
    44    18    26 1   
    45    18    55 1   
    46    18    56 1   
    47    19    20 1   
    48    19    21 1   
    49    19    57 1   
    50    20    58 1   
    51    20    59 1   
    52    20    60 1   
    53    21    22 1   
    54    21    35 1   
    55    21    61 1   
    56    22    23 1   
    57    22    24 1   
    58    22    62 1   
    59    23    63 1   
    60    23    64 1   
    61    23    65 1   
    62    24    66 1   
    63    24    67 1   
    64    24    68 1   
    65    25    35 1   
    66    25    36 2   
    67    26    30 1   
    68    26    69 1   
    69    26    70 1   
    70    27    28 1   
    71    27    30 1   
    72    27    37 2   
    73    28    31 1   
    74    29    71 1   
    75    33    72 1   
@<TRIPOS>SUBSTRUCTURE
     1 VIR         1 TEMP              0 ****  ****    0 ROOT
