@<TRIPOS>MOLECULE
VIR
   73    75     1     0     0
SMALL
bcc


@<TRIPOS>ATOM
      1 C1          -0.2100     0.6440    -3.0240 ce         1 VIR      -0.024600
      2 C10          4.5660    -0.3980     0.1050 cc         1 VIR       0.478700
      3 C12          3.6070     1.2160    -0.9330 cc         1 VIR       0.191300
      4 C13          5.4170    -0.9880     1.1630 c3         1 VIR      -0.215700
      5 C14          4.8710    -0.7540     2.5750 c          1 VIR       0.592100
      6 C16          3.3960    -0.4740     2.6890 c3         1 VIR      -0.183400
      7 C17          2.8120    -0.5460     4.0900 c3         1 VIR       0.201300
      8 C19          1.3960    -0.0470     4.0510 c2         1 VIR      -0.213200
      9 C2          -0.4440     1.4240    -4.0790 c2         1 VIR      -0.169200
     10 C20          0.9060     1.0620     4.6170 ce         1 VIR      -0.060200
     11 C21          1.7110     2.0460     5.4190 c3         1 VIR      -0.060900
     12 C22         -0.5080     1.4430     4.4490 ce         1 VIR      -0.110000
     13 C23         -1.5460     0.6130     4.3730 c2         1 VIR      -0.187200
     14 C24         -2.9660     1.0720     4.2170 c3         1 VIR       0.143200
     15 C26         -3.3950     1.1110     1.7970 c          1 VIR       0.677300
     16 C28         -4.0430     0.3700     0.6900 ce         1 VIR      -0.244200
     17 C29         -3.8390     0.6890    -0.5850 c2         1 VIR      -0.084200
     18 C3           0.8020     2.1680    -4.4510 c5         1 VIR      -0.069200
     19 C30         -4.4130    -0.0860    -1.7350 c3         1 VIR      -0.055500
     20 C31         -4.9840     0.8490    -2.7990 c3         1 VIR      -0.080100
     21 C32         -3.3770    -1.0810    -2.2860 c3         1 VIR       0.165100
     22 C33         -3.9020    -2.0610    -3.3370 c3         1 VIR      -0.062700
     23 C34         -2.7850    -3.0010    -3.7880 c3         1 VIR      -0.090600
     24 C35         -5.0720    -2.8700    -2.7800 c3         1 VIR      -0.090600
     25 C37         -1.1980    -0.0920    -2.2050 c          1 VIR       0.675300
     26 C4           1.6980     1.9630    -3.2180 c5         1 VIR       0.096000
     27 C6           1.7910    -0.2670    -2.0320 c          1 VIR       0.618600
     28 C8           3.0200     0.0420    -1.2730 cd         1 VIR       0.184500
     29 N25         -3.5880     0.5630     3.0130 ns         1 VIR      -0.573900
     30 N5           1.1100     0.7890    -2.5580 n          1 VIR      -0.397000
     31 N9           3.6630    -0.9760    -0.6000 nd         1 VIR      -0.621000
     32 O11          4.5970     0.9380    -0.0670 os         1 VIR      -0.343800
     33 O18          2.8630    -1.9020     4.4900 oh         1 VIR      -0.590800
     34 O27         -2.7420     2.1340     1.6290 o          1 VIR      -0.603100
     35 O36         -2.2910    -0.3620    -2.9020 os         1 VIR      -0.424900
     36 O38         -1.0300    -0.3500    -1.0430 o          1 VIR      -0.500000
     37 O7           1.3710    -1.4070    -2.0830 o          1 VIR      -0.523100
     38 H12          3.4520     2.2510    -1.1860 h4         1 VIR       0.070100
     39 H131         5.4430    -2.0700     1.0100 hc         1 VIR       0.100700
     40 H132         6.4440    -0.6240     1.1100 hc         1 VIR       0.100700
     41 H161         3.2310     0.5350     2.2930 hc         1 VIR       0.085200
     42 H162         2.8450    -1.1400     2.0170 hc         1 VIR       0.085200
     43 H17          3.4220     0.0750     4.7560 h1         1 VIR       0.046700
     44 H19          0.7250    -0.6540     3.4480 ha         1 VIR       0.140000
     45 HC2         -1.3940     1.5380    -4.5780 ha         1 VIR       0.166000
     46 H211         1.2060     2.2800     6.3580 hc         1 VIR       0.043367
     47 H212         2.7120     1.6950     5.6570 hc         1 VIR       0.043367
     48 H213         1.8130     2.9880     4.8750 hc         1 VIR       0.043367
     49 H22         -0.7020     2.5140     4.4200 ha         1 VIR       0.129000
     50 H23         -1.3950    -0.4610     4.4390 ha         1 VIR       0.122000
     51 H241        -3.5650     0.7160     5.0580 h1         1 VIR       0.055200
     52 H242        -3.0200     2.1610     4.2250 h1         1 VIR       0.055200
     53 H28         -4.6630    -0.4860     0.9440 ha         1 VIR       0.121000
     54 H29         -3.2160     1.5480    -0.8160 ha         1 VIR       0.149000
     55 HC31         1.2440     1.7520    -5.3610 hc         1 VIR       0.065200
     56 HC32         0.6160     3.2250    -4.6390 hc         1 VIR       0.065200
     57 H30         -5.2260    -0.6950    -1.3330 hc         1 VIR       0.059700
     58 H311        -5.6830     1.5520    -2.3450 hc         1 VIR       0.040033
     59 H312        -4.2030     1.4300    -3.2920 hc         1 VIR       0.040033
     60 H313        -5.5300     0.3000    -3.5660 hc         1 VIR       0.040033
     61 H32         -2.9870    -1.6620    -1.4450 h1         1 VIR       0.071700
     62 H33         -4.2530    -1.5000    -4.2090 hc         1 VIR       0.059700
     63 H341        -3.1800    -3.7590    -4.4650 hc         1 VIR       0.039033
     64 H342        -1.9870    -2.4780    -4.3130 hc         1 VIR       0.039033
     65 H343        -2.3420    -3.5190    -2.9330 hc         1 VIR       0.039033
     66 H351        -4.8040    -3.3560    -1.8390 hc         1 VIR       0.039033
     67 H352        -5.9590    -2.2630    -2.6030 hc         1 VIR       0.039033
     68 H353        -5.3550    -3.6540    -3.4830 hc         1 VIR       0.039033
     69 HC41         2.7390     1.7850    -3.4810 h1         1 VIR       0.055200
     70 HC42         1.6440     2.8330    -2.5600 h1         1 VIR       0.055200
     71 H25         -4.1020    -0.3000     3.0810 hn         1 VIR       0.311500
     72 H18          2.5470    -1.9560     5.3980 ho         1 VIR       0.407000
     73 O15          5.6150    -0.8020     3.5220 o          1 VIR      -0.506100
@<TRIPOS>BOND
     1     1     9 2   
     2     1    25 1   
     3     1    30 1   
     4     2     4 1   
     5     2    31 2   
     6     2    32 1   
     7     3    28 2   
     8     3    32 1   
     9     3    38 1   
    10     4     5 1   
    11     4    39 1   
    12     4    40 1   
    13     5     6 1   
    14     5    73 2   
    15     6     7 1   
    16     6    41 1   
    17     6    42 1   
    18     7     8 1   
    19     7    33 1   
    20     7    43 1   
    21     8    10 2   
    22     8    44 1   
    23     9    18 1   
    24     9    45 1   
    25    10    11 1   
    26    10    12 1   
    27    11    46 1   
    28    11    47 1   
    29    11    48 1   
    30    12    13 2   
    31    12    49 1   
    32    13    14 1   
    33    13    50 1   
    34    14    29 1   
    35    14    51 1   
    36    14    52 1   
    37    15    16 1   
    38    15    29 1   
    39    15    34 2   
    40    16    17 2   
    41    16    53 1   
    42    17    19 1   
    43    17    54 1   
    44    18    26 1   
    45    18    55 1   
    46    18    56 1   
    47    19    20 1   
    48    19    21 1   
    49    19    57 1   
    50    20    58 1   
    51    20    59 1   
    52    20    60 1   
    53    21    22 1   
    54    21    35 1   
    55    21    61 1   
    56    22    23 1   
    57    22    24 1   
    58    22    62 1   
    59    23    63 1   
    60    23    64 1   
    61    23    65 1   
    62    24    66 1   
    63    24    67 1   
    64    24    68 1   
    65    25    35 1   
    66    25    36 2   
    67    26    30 1   
    68    26    69 1   
    69    26    70 1   
    70    27    28 1   
    71    27    30 1   
    72    27    37 2   
    73    28    31 1   
    74    29    71 1   
    75    33    72 1   
@<TRIPOS>SUBSTRUCTURE
     1 VIR         1 TEMP              0 ****  ****    0 ROOT
