@<TRIPOS>MOLECULE
VIS
   41    43     1     0     0
SMALL
bcc


@<TRIPOS>ATOM
      1 CL1         -5.8160    -2.1190     0.3920 cl         1 VIS      -0.090400
      2 C11         -4.1440    -1.6730     0.3640 ca         1 VIS       0.034400
      3 C10         -3.1980    -2.6340     0.6890 ca         1 VIS      -0.099000
      4 C9          -1.8540    -2.3240     0.6360 ca         1 VIS      -0.169000
      5 C12         -3.7500    -0.3980    -0.0270 cp         1 VIS      -0.103500
      6 C14         -4.7240     0.6600    -0.3920 cp         1 VIS       0.459800
      7 N1          -5.6130     1.0120     0.5320 nb         1 VIS      -0.647000
      8 C18         -6.4790     1.9710     0.2360 ca         1 VIS       0.405200
      9 C17         -6.5090     2.6240    -0.9890 ca         1 VIS      -0.242300
     10 C16         -5.5820     2.2550    -1.9500 ca         1 VIS      -0.091000
     11 C15         -4.6710     1.2550    -1.6480 ca         1 VIS      -0.225300
     12 C13         -2.3910    -0.0990    -0.0890 ca         1 VIS      -0.129000
     13 C8          -1.4340    -1.0530     0.2460 ca         1 VIS       0.065600
     14 N           -0.0540    -0.8280     0.2030 ns         1 VIS      -0.466100
     15 C7           0.6070     0.3480     0.1000 c          1 VIS       0.685700
     16 O2           0.0920     1.4440     0.0170 o          1 VIS      -0.540100
     17 C4           2.0980     0.1820     0.0680 ca         1 VIS      -0.105600
     18 C3           2.6800    -0.5640    -0.9500 ca         1 VIS      -0.119000
     19 C2           4.0560    -0.6820    -1.0500 ca         1 VIS      -0.041000
     20 C5           2.9200     0.8110     1.0000 ca         1 VIS       0.043400
     21 CL           2.2390     1.7150     2.3010 cl         1 VIS      -0.063400
     22 C6           4.2980     0.6960     0.9260 ca         1 VIS      -0.037000
     23 C1           4.8470    -0.0520    -0.1040 ca         1 VIS      -0.241500
     24 S            6.6180    -0.2160    -0.1970 sy         1 VIS       1.087300
     25 O            6.9690    -0.5220    -1.5800 o          1 VIS      -0.584800
     26 O1           7.2170     0.9500     0.4460 o          1 VIS      -0.584800
     27 C            6.9470    -1.6480     0.8020 c3         1 VIS      -0.226300
     28 H1          -3.5090    -3.6270     0.9830 ha         1 VIS       0.150000
     29 H2          -1.1260    -3.0830     0.8960 ha         1 VIS       0.132000
     30 H3          -7.1870     2.2380     1.0130 h4         1 VIS       0.021100
     31 H4          -7.2400     3.3980    -1.1760 ha         1 VIS       0.142000
     32 H5          -5.5690     2.7320    -2.9210 ha         1 VIS       0.139000
     33 H6          -3.9380     0.9330    -2.3770 ha         1 VIS       0.145000
     34 H7          -2.0990     0.8910    -0.3980 ha         1 VIS       0.170000
     35 H8           0.5160    -1.6470     0.3520 hn         1 VIS       0.322500
     36 H9           2.0520    -1.0490    -1.6870 ha         1 VIS       0.149000
     37 H10          4.4920    -1.2550    -1.8570 ha         1 VIS       0.164000
     38 H11          4.9220     1.1810     1.6650 ha         1 VIS       0.174000
     39 H12          6.4340    -2.5090     0.3800 h1         1 VIS       0.105033
     40 H13          8.0250    -1.8100     0.7880 h1         1 VIS       0.105033
     41 H14          6.6110    -1.4640     1.8190 h1         1 VIS       0.105033
@<TRIPOS>BOND
     1     1     2 1   
     2     2     3 ar  
     3     2     5 ar  
     4     3     4 ar  
     5     3    28 1   
     6     4    13 ar  
     7     4    29 1   
     8     5     6 1   
     9     5    12 ar  
    10     6     7 ar  
    11     6    11 ar  
    12     7     8 ar  
    13     8     9 ar  
    14     8    30 1   
    15     9    10 ar  
    16     9    31 1   
    17    10    11 ar  
    18    10    32 1   
    19    11    33 1   
    20    12    13 ar  
    21    12    34 1   
    22    13    14 1   
    23    14    15 1   
    24    14    35 1   
    25    15    16 2   
    26    15    17 1   
    27    17    18 ar  
    28    17    20 ar  
    29    18    19 ar  
    30    18    36 1   
    31    19    23 ar  
    32    19    37 1   
    33    20    21 1   
    34    20    22 ar  
    35    22    23 ar  
    36    22    38 1   
    37    23    24 1   
    38    24    25 2   
    39    24    26 2   
    40    24    27 1   
    41    27    39 1   
    42    27    40 1   
    43    27    41 1   
@<TRIPOS>SUBSTRUCTURE
     1 VIS         1 TEMP              0 ****  ****    0 ROOT
