@<TRIPOS>MOLECULE
VIS
   41    43     1     0     0
SMALL
No Charge or Current Charge


@<TRIPOS>ATOM
      1 Cl1         -5.9310    -2.2960    -0.2920 cl         1 VIS      -0.182000
      2 C11         -4.2390    -1.7970    -0.2160 ca         1 VIS       0.126000
      3 C10         -3.2690    -2.8120    -0.1930 ca         1 VIS      -0.081000
      4 C9          -1.9020    -2.4920    -0.1850 ca         1 VIS      -0.151000
      5 C12         -3.8480    -0.4300    -0.2230 cp         1 VIS      -0.103500
      6 C14         -4.8370     0.6930    -0.2380 cp         1 VIS       0.394500
      7 N1          -5.7900     0.7030     0.7230 nb         1 VIS      -0.647000
      8 C18         -6.6730     1.7270     0.7570 ca         1 VIS       0.339900
      9 C17         -6.6380     2.7930    -0.1590 ca         1 VIS      -0.159000
     10 C16         -5.6470     2.8070    -1.1520 ca         1 VIS      -0.073000
     11 C15         -4.7320     1.7420    -1.1830 ca         1 VIS      -0.142000
     12 C13         -2.4600    -0.1320    -0.2290 ca         1 VIS      -0.111000
     13 C8          -1.4830    -1.1510    -0.2150 ca         1 VIS      -0.027000
     14 N           -0.0820    -0.9010    -0.2070 ns         1 VIS      -0.140000
     15 C7           0.6650     0.2520    -0.4250 c          1 VIS       0.618700
     16 O2           0.1530     1.3180    -0.7450 o          1 VIS      -0.540100
     17 C4           2.1710     0.0680    -0.3150 ca         1 VIS      -0.105600
     18 C3           2.7450    -1.2150    -0.5240 ca         1 VIS      -0.101000
     19 C2           4.1320    -1.4150    -0.4430 ca         1 VIS      -0.023000
     20 C5           3.0450     1.1490    -0.0140 ca         1 VIS       0.135000
     21 Cl           2.4730     2.7830     0.3370 cl         1 VIS      -0.155000
     22 C6           4.4340     0.9400     0.0680 ca         1 VIS      -0.019000
     23 C1           4.9860    -0.3370    -0.1490 ca         1 VIS      -0.241500
     24 S            6.7700    -0.5900    -0.0310 sy         1 VIS       1.056500
     25 O            7.1330    -1.7850    -0.8030 o          1 VIS      -0.514000
     26 O1           7.4470     0.6950    -0.2510 o          1 VIS      -0.514000
     27 C            7.0070    -1.0040     1.6950 c3         1 VIS      -0.337100
     28 H1          -3.5800    -3.8540    -0.1890 ha         1 VIS       0.132000
     29 H2          -1.1670    -3.2940    -0.1680 ha         1 VIS       0.114000
     30 H3          -7.4280     1.6930     1.5410 h4         1 VIS       0.021100
     31 H4          -7.3700     3.5930    -0.0900 ha         1 VIS       0.124000
     32 H5          -5.5870     3.6200    -1.8740 ha         1 VIS       0.121000
     33 H6          -3.9490     1.7180    -1.9350 ha         1 VIS       0.127000
     34 H7          -2.1650     0.9130    -0.2200 ha         1 VIS       0.152000
     35 H8           0.4730    -1.7150     0.0170 hn         1 VIS       0.156000
     36 H9           2.1260    -2.0730    -0.7760 ha         1 VIS       0.131000
     37 H10          4.5370    -2.4130    -0.6130 ha         1 VIS       0.146000
     38 H11          5.0780     1.7840     0.3100 ha         1 VIS       0.156000
     39 H12          6.4300    -1.9090     1.9120 h1         1 VIS       0.105033
     40 H13          8.0760    -1.1760     1.8610 h1         1 VIS       0.105033
     41 H14          6.6520    -0.1630     2.3010 h1         1 VIS       0.105033
@<TRIPOS>BOND
     1     1     2 1   
     2     2     3 ar  
     3     2     5 ar  
     4     3     4 ar  
     5     3    28 1   
     6     4    13 ar  
     7     4    29 1   
     8     5     6 1   
     9     5    12 ar  
    10     6     7 ar  
    11     6    11 ar  
    12     7     8 ar  
    13     8     9 ar  
    14     8    30 1   
    15     9    10 ar  
    16     9    31 1   
    17    10    11 ar  
    18    10    32 1   
    19    11    33 1   
    20    12    13 ar  
    21    12    34 1   
    22    13    14 1   
    23    14    15 1   
    24    14    35 1   
    25    15    16 2   
    26    15    17 1   
    27    17    18 ar  
    28    17    20 ar  
    29    18    19 ar  
    30    18    36 1   
    31    19    23 ar  
    32    19    37 1   
    33    20    21 1   
    34    20    22 ar  
    35    22    23 ar  
    36    22    38 1   
    37    23    24 1   
    38    24    25 2   
    39    24    26 2   
    40    24    27 1   
    41    27    39 1   
    42    27    40 1   
    43    27    41 1   
@<TRIPOS>SUBSTRUCTURE
     1 VIS         1 TEMP              0 ****  ****    0 ROOT
