@<TRIPOS>MOLECULE
VIT
   81    82     1     0     0
SMALL
abcg2


@<TRIPOS>ATOM
      1 C1           2.0880    -0.0380     6.4510 c3         1 VIT      -0.086100
      2 C2          -0.6230     0.1350    -7.6380 ca         1 VIT      -0.071300
      3 C3          -1.0020     0.0340    -6.2960 ca         1 VIT      -0.122300
      4 C4          -0.0520     0.2300    -5.2960 ca         1 VIT       0.120100
      5 C5           1.2730     0.5490    -5.6080 ca         1 VIT      -0.070300
      6 C6           1.6370     0.7140    -6.9470 ca         1 VIT      -0.131300
      7 C7           0.6910     0.4790    -7.9500 ca         1 VIT       0.109100
      8 C8          -1.6380    -0.1150    -8.7190 c3         1 VIT      -0.038800
      9 O1          -0.3610     0.1490    -3.9760 os         1 VIT      -0.353100
     10 C9          -1.5400    -0.5640    -3.5870 c6         1 VIT       0.193000
     11 C10         -2.4220    -0.3060    -5.9310 c6         1 VIT      -0.022100
     12 C11         -2.6990    -0.0800    -4.4520 c6         1 VIT      -0.103400
     13 C13          3.0460     1.1210    -7.2890 c3         1 VIT      -0.047800
     14 O2           1.0040     0.5930    -9.2710 oh         1 VIT      -0.547100
     15 C14         -1.3100    -2.0640    -3.7400 c3         1 VIT      -0.113100
     16 C15         -1.7840    -0.1820    -2.1270 c3         1 VIT      -0.065400
     17 C17         -0.9270     0.0550     0.2340 c3         1 VIT      -0.074400
     18 C18          0.0690    -0.3640     1.3170 c3         1 VIT      -0.055700
     19 C19          1.4990     0.0200     0.9480 c3         1 VIT      -0.087100
     20 C20         -0.3500     0.2350     2.6630 c3         1 VIT      -0.074400
     21 C21          0.4040    -0.3040     3.8740 c3         1 VIT      -0.073400
     22 C22         -0.0690     0.3310     5.1770 c3         1 VIT      -0.073400
     23 C23          0.5730    -0.2230     6.4520 c3         1 VIT      -0.056700
     24 C24         -0.0780     0.4300     7.6740 c3         1 VIT      -0.074400
     25 C25          0.3590    -0.1230     9.0250 c3         1 VIT      -0.073400
     26 C26         -0.3990     0.5220    10.1810 c3         1 VIT      -0.073400
     27 C27          0.0430     0.0760    11.5750 c3         1 VIT      -0.059700
     28 C28         -0.6810     0.8900    12.6430 c3         1 VIT      -0.086600
     29 C29         -0.1830    -1.4160    11.8010 c3         1 VIT      -0.086600
     30 HC11         2.3490     1.0230     6.3960 hc         1 VIT       0.031700
     31 HC12         2.5470    -0.4430     7.3540 hc         1 VIT       0.031700
     32 HC13         2.5580    -0.5380     5.6040 hc         1 VIT       0.031700
     33 HC81        -2.3670     0.6980    -8.7790 hc         1 VIT       0.043367
     34 HC82        -1.1830    -0.2140    -9.7000 hc         1 VIT       0.043367
     35 HC83        -2.2040    -1.0280    -8.5270 hc         1 VIT       0.043367
     36 H101        -2.6350    -1.3450    -6.2050 hc         1 VIT       0.052200
     37 H102        -3.1150     0.2960    -6.5240 hc         1 VIT       0.052200
     38 H111        -3.6210    -0.5840    -4.1560 hc         1 VIT       0.053700
     39 H112        -2.8500     0.9880    -4.2630 hc         1 VIT       0.053700
     40 H121         2.5290     1.7780    -4.3470 hc         1 VIT       0.043033
     41 H122         1.9580     0.3080    -3.5740 hc         1 VIT       0.043033
     42 H123         3.2340     0.2330    -4.7780 hc         1 VIT       0.043033
     43 H131         3.4330     1.8430    -6.5720 hc         1 VIT       0.041367
     44 H132         3.7310     0.2690    -7.2840 hc         1 VIT       0.041367
     45 H133         3.1300     1.6000    -8.2650 hc         1 VIT       0.041367
     46 HO21         1.9570     0.5820    -9.3970 ho         1 VIT       0.461000
     47 H141        -1.1140    -2.3500    -4.7740 hc         1 VIT       0.045033
     48 H142        -0.4610    -2.3980    -3.1420 hc         1 VIT       0.045033
     49 H143        -2.1910    -2.6140    -3.4070 hc         1 VIT       0.045033
     50 H151        -2.7140    -0.6610    -1.8070 hc         1 VIT       0.046700
     51 H152        -1.9710     0.8970    -2.0820 hc         1 VIT       0.046700
     52 H171        -1.9350    -0.2290     0.5590 hc         1 VIT       0.036200
     53 H172        -0.9320     1.1500     0.1590 hc         1 VIT       0.036200
     54 H18          0.0210    -1.4580     1.4110 hc         1 VIT       0.043700
     55 H191         1.5800     1.0970     0.7790 hc         1 VIT       0.032700
     56 H192         2.2070    -0.2440     1.7340 hc         1 VIT       0.032700
     57 H193         1.8330    -0.4830     0.0400 hc         1 VIT       0.032700
     58 H201        -1.4210     0.0530     2.8090 hc         1 VIT       0.036700
     59 H202        -0.2350     1.3250     2.6200 hc         1 VIT       0.036700
     60 H211         1.4760    -0.1330     3.7490 hc         1 VIT       0.038700
     61 H212         0.2730    -1.3910     3.9280 hc         1 VIT       0.038700
     62 H221        -1.1550     0.2080     5.2550 hc         1 VIT       0.036200
     63 H222         0.1080     1.4130     5.1330 hc         1 VIT       0.036200
     64 H23          0.3610    -1.3000     6.4960 hc         1 VIT       0.043700
     65 H241        -1.1650     0.3190     7.5880 hc         1 VIT       0.036200
     66 H242         0.1140     1.5100     7.6440 hc         1 VIT       0.036200
     67 H251         1.4320     0.0390     9.1710 hc         1 VIT       0.038700
     68 H252         0.2100    -1.2070     9.0340 hc         1 VIT       0.038700
     69 H261        -1.4720     0.3240    10.0680 hc         1 VIT       0.036700
     70 H262        -0.2850     1.6090    10.1080 hc         1 VIT       0.036700
     71 H27          1.1180     0.2750    11.6670 hc         1 VIT       0.043700
     72 H281        -0.3590     0.6090    13.6480 hc         1 VIT       0.031533
     73 H282        -0.4970     1.9600    12.5230 hc         1 VIT       0.031533
     74 H283        -1.7610     0.7330    12.5860 hc         1 VIT       0.031533
     75 H291        -1.2370    -1.6730    11.6650 hc         1 VIT       0.031533
     76 H292         0.3970    -2.0320    11.1140 hc         1 VIT       0.031533
     77 H293         0.0990    -1.7070    12.8150 hc         1 VIT       0.031533
     78 C16         -0.6700    -0.5380    -1.1470 c3         1 VIT      -0.070400
     79 C12          2.2960     0.7240    -4.5200 c3         1 VIT      -0.038800
     80 H161         0.2860    -0.1790    -1.5350 hc         1 VIT       0.046700
     81 H162        -0.5790    -1.6250    -1.0580 hc         1 VIT       0.046700
@<TRIPOS>BOND
     1     1    23 1   
     2     1    30 1   
     3     1    31 1   
     4     1    32 1   
     5     2     3 ar  
     6     2     7 ar  
     7     2     8 1   
     8     3     4 ar  
     9     3    11 1   
    10     4     5 ar  
    11     4     9 1   
    12     5     6 ar  
    13     5    79 1   
    14     6     7 ar  
    15     6    13 1   
    16     7    14 1   
    17     8    33 1   
    18     8    34 1   
    19     8    35 1   
    20     9    10 1   
    21    10    12 1   
    22    10    15 1   
    23    10    16 1   
    24    11    12 1   
    25    11    36 1   
    26    11    37 1   
    27    12    38 1   
    28    12    39 1   
    29    13    43 1   
    30    13    44 1   
    31    13    45 1   
    32    14    46 1   
    33    15    47 1   
    34    15    48 1   
    35    15    49 1   
    36    16    50 1   
    37    16    51 1   
    38    16    78 1   
    39    17    18 1   
    40    17    52 1   
    41    17    53 1   
    42    17    78 1   
    43    18    19 1   
    44    18    20 1   
    45    18    54 1   
    46    19    55 1   
    47    19    56 1   
    48    19    57 1   
    49    20    21 1   
    50    20    58 1   
    51    20    59 1   
    52    21    22 1   
    53    21    60 1   
    54    21    61 1   
    55    22    23 1   
    56    22    62 1   
    57    22    63 1   
    58    23    24 1   
    59    23    64 1   
    60    24    25 1   
    61    24    65 1   
    62    24    66 1   
    63    25    26 1   
    64    25    67 1   
    65    25    68 1   
    66    26    27 1   
    67    26    69 1   
    68    26    70 1   
    69    27    28 1   
    70    27    29 1   
    71    27    71 1   
    72    28    72 1   
    73    28    73 1   
    74    28    74 1   
    75    29    75 1   
    76    29    76 1   
    77    29    77 1   
    78    40    79 1   
    79    41    79 1   
    80    42    79 1   
    81    78    80 1   
    82    78    81 1   
@<TRIPOS>SUBSTRUCTURE
     1 VIT         1 TEMP              0 ****  ****    0 ROOT
