@<TRIPOS>MOLECULE
VIT
   81    82     1     0     0
SMALL
No Charge or Current Charge


@<TRIPOS>ATOM
      1 C1           2.1420     0.5390     6.6350 c3         1 VIT      -0.086100
      2 C2          -0.6670    -0.1470    -7.7940 ca         1 VIT      -0.071300
      3 C3          -1.0250    -0.1050    -6.4240 ca         1 VIT      -0.122300
      4 C4          -0.0180     0.0750    -5.4420 ca         1 VIT       0.120100
      5 C5           1.3340     0.2580    -5.8170 ca         1 VIT      -0.070300
      6 C6           1.6870     0.2710    -7.1900 ca         1 VIT      -0.131300
      7 C7           0.6860     0.0480    -8.1660 ca         1 VIT       0.109100
      8 C8          -1.7460    -0.3840    -8.8630 c3         1 VIT      -0.038800
      9 O1          -0.3360     0.1090    -4.0940 os         1 VIT      -0.353100
     10 C9          -1.5960    -0.3970    -3.6130 c6         1 VIT       0.193000
     11 C10         -2.4960    -0.2630    -5.9980 c6         1 VIT      -0.022100
     12 C11         -2.7370     0.1150    -4.5240 c6         1 VIT      -0.103400
     13 C13          3.1480     0.5120    -7.6120 c3         1 VIT      -0.047800
     14 O2           1.0310     0.0200    -9.4910 oh         1 VIT      -0.547100
     15 C14         -1.4970    -1.9560    -3.5920 c3         1 VIT      -0.113100
     16 C15         -1.7770     0.1470    -2.1550 c3         1 VIT      -0.065400
     17 C17         -0.8760     0.4950     0.2400 c3         1 VIT      -0.074400
     18 C18          0.1490     0.1030     1.3430 c3         1 VIT      -0.055700
     19 C19          1.5960     0.5280     0.9770 c3         1 VIT      -0.087100
     20 C20         -0.3020     0.6720     2.7200 c3         1 VIT      -0.074400
     21 C21          0.5220     0.1840     3.9370 c3         1 VIT      -0.073400
     22 C22         -0.0550     0.6760     5.2870 c3         1 VIT      -0.073400
     23 C23          0.6520     0.1130     6.5550 c3         1 VIT      -0.056700
     24 C24         -0.1430     0.5090     7.8320 c3         1 VIT      -0.074400
     25 C25          0.3430    -0.1560     9.1430 c3         1 VIT      -0.073400
     26 C26         -0.5700     0.1650    10.3510 c3         1 VIT      -0.073400
     27 C27         -0.0670    -0.3840    11.7150 c3         1 VIT      -0.059700
     28 C28         -0.9470     0.1300    12.8760 c3         1 VIT      -0.086600
     29 C29          0.0300    -1.9290    11.7450 c3         1 VIT      -0.086600
     30 HC11         2.2330     1.6290     6.7070 hc         1 VIT       0.031700
     31 HC12         2.6370     0.0950     7.5060 hc         1 VIT       0.031700
     32 HC13         2.7010     0.2040     5.7540 hc         1 VIT       0.031700
     33 HC81        -2.3410     0.5230    -9.0230 hc         1 VIT       0.043367
     34 HC82        -1.3350    -0.6800    -9.8340 hc         1 VIT       0.043367
     35 HC83        -2.4320    -1.1880    -8.5710 hc         1 VIT       0.043367
     36 H101        -2.8120    -1.3020    -6.1650 hc         1 VIT       0.052200
     37 H102        -3.1480     0.3590    -6.6270 hc         1 VIT       0.052200
     38 H111        -3.7070    -0.2770    -4.1880 hc         1 VIT       0.053700
     39 H112        -2.8000     1.2090    -4.4450 hc         1 VIT       0.053700
     40 H121         2.6860     1.4990    -4.6370 hc         1 VIT       0.043033
     41 H122         2.0830     0.0980    -3.7450 hc         1 VIT       0.043033
     42 H123         3.3150    -0.1260    -4.9650 hc         1 VIT       0.043033
     43 H131         3.6530     1.2250    -6.9510 hc         1 VIT       0.041367
     44 H132         3.7190    -0.4240    -7.5920 hc         1 VIT       0.041367
     45 H133         3.2380     0.9380    -8.6170 hc         1 VIT       0.041367
     46 HO21         2.0030     0.1170    -9.5570 ho         1 VIT       0.461000
     47 H141        -1.4030    -2.3790    -4.5980 hc         1 VIT       0.045033
     48 H142        -0.6220    -2.3000    -3.0290 hc         1 VIT       0.045033
     49 H143        -2.3870    -2.4020    -3.1310 hc         1 VIT       0.045033
     50 H151        -2.7240    -0.2280    -1.7470 hc         1 VIT       0.046700
     51 H152        -1.8860     1.2380    -2.1970 hc         1 VIT       0.046700
     52 H171        -1.8830     0.2260     0.5850 hc         1 VIT       0.036200
     53 H172        -0.8730     1.5850     0.1140 hc         1 VIT       0.036200
     54 H18          0.1380    -0.9910     1.4240 hc         1 VIT       0.043700
     55 H191         1.6710     1.6180     0.8820 hc         1 VIT       0.032700
     56 H192         2.3130     0.1990     1.7380 hc         1 VIT       0.032700
     57 H193         1.9170     0.0770     0.0310 hc         1 VIT       0.032700
     58 H201        -1.3500     0.3920     2.8860 hc         1 VIT       0.036700
     59 H202        -0.2750     1.7680     2.6850 hc         1 VIT       0.036700
     60 H211         1.5520     0.5400     3.8370 hc         1 VIT       0.038700
     61 H212         0.5530    -0.9130     3.9360 hc         1 VIT       0.038700
     62 H221        -1.1150     0.3960     5.3260 hc         1 VIT       0.036200
     63 H222        -0.0230     1.7730     5.3120 hc         1 VIT       0.036200
     64 H23          0.6260    -0.9820     6.4820 hc         1 VIT       0.043700
     65 H241        -1.1970     0.2390     7.6870 hc         1 VIT       0.036200
     66 H242        -0.1160     1.6000     7.9510 hc         1 VIT       0.036200
     67 H251         1.3590     0.1810     9.3760 hc         1 VIT       0.038700
     68 H252         0.3860    -1.2410     8.9910 hc         1 VIT       0.038700
     69 H261        -1.5770    -0.2250    10.1550 hc         1 VIT       0.036700
     70 H262        -0.6680     1.2550    10.4280 hc         1 VIT       0.036700
     71 H27          0.9440     0.0110    11.8790 hc         1 VIT       0.043700
     72 H281        -0.5560    -0.2120    13.8420 hc         1 VIT       0.031533
     73 H282        -0.9680     1.2270    12.8920 hc         1 VIT       0.031533
     74 H283        -1.9780    -0.2310    12.7750 hc         1 VIT       0.031533
     75 H291        -0.9390    -2.3860    11.5130 hc         1 VIT       0.031533
     76 H292         0.7680    -2.2950    11.0220 hc         1 VIT       0.031533
     77 H293         0.3430    -2.2770    12.7370 hc         1 VIT       0.031533
     78 C16         -0.6490    -0.1750    -1.1380 c3         1 VIT      -0.070400
     79 C12          2.4070     0.4430    -4.7330 c3         1 VIT      -0.038800
     80 H161         0.3080     0.1590    -1.5540 hc         1 VIT       0.046700
     81 H162        -0.5800    -1.2590    -0.9920 hc         1 VIT       0.046700
@<TRIPOS>BOND
     1     1    23 1   
     2     1    30 1   
     3     1    31 1   
     4     1    32 1   
     5     2     3 ar  
     6     2     7 ar  
     7     2     8 1   
     8     3     4 ar  
     9     3    11 1   
    10     4     5 ar  
    11     4     9 1   
    12     5     6 ar  
    13     5    79 1   
    14     6     7 ar  
    15     6    13 1   
    16     7    14 1   
    17     8    33 1   
    18     8    34 1   
    19     8    35 1   
    20     9    10 1   
    21    10    12 1   
    22    10    15 1   
    23    10    16 1   
    24    11    12 1   
    25    11    36 1   
    26    11    37 1   
    27    12    38 1   
    28    12    39 1   
    29    13    43 1   
    30    13    44 1   
    31    13    45 1   
    32    14    46 1   
    33    15    47 1   
    34    15    48 1   
    35    15    49 1   
    36    16    50 1   
    37    16    51 1   
    38    16    78 1   
    39    17    18 1   
    40    17    52 1   
    41    17    53 1   
    42    17    78 1   
    43    18    19 1   
    44    18    20 1   
    45    18    54 1   
    46    19    55 1   
    47    19    56 1   
    48    19    57 1   
    49    20    21 1   
    50    20    58 1   
    51    20    59 1   
    52    21    22 1   
    53    21    60 1   
    54    21    61 1   
    55    22    23 1   
    56    22    62 1   
    57    22    63 1   
    58    23    24 1   
    59    23    64 1   
    60    24    25 1   
    61    24    65 1   
    62    24    66 1   
    63    25    26 1   
    64    25    67 1   
    65    25    68 1   
    66    26    27 1   
    67    26    69 1   
    68    26    70 1   
    69    27    28 1   
    70    27    29 1   
    71    27    71 1   
    72    28    72 1   
    73    28    73 1   
    74    28    74 1   
    75    29    75 1   
    76    29    76 1   
    77    29    77 1   
    78    40    79 1   
    79    41    79 1   
    80    42    79 1   
    81    78    80 1   
    82    78    81 1   
@<TRIPOS>SUBSTRUCTURE
     1 VIT         1 TEMP              0 ****  ****    0 ROOT
