@<TRIPOS>MOLECULE
VIU
   56    60     1     0     0
SMALL
abcg2


@<TRIPOS>ATOM
      1 C00         -2.6840     1.7850     1.4550 ca         1 VIU      -0.063300
      2 C01         -2.2310     0.7160     0.7170 ca         1 VIU      -0.106000
      3 C02         -2.6290    -0.6230     0.9510 ca         1 VIU       0.289000
      4 N0K         -2.1350    -1.6500     0.1850 nh         1 VIU      -0.839400
      5 C0M         -1.5180    -1.4340    -1.1130 c5         1 VIU       0.226800
      6 C0N         -1.6820    -2.7750    -1.8260 c5         1 VIU      -0.093400
      7 C0P         -2.5790    -3.0150     0.3640 c5         1 VIU       0.226800
      8 C0O         -1.7820    -3.7800    -0.6830 c5         1 VIU      -0.093400
      9 C05         -3.6130     1.5960     2.5250 ca         1 VIU       0.259400
     10 C04         -3.9970     0.2580     2.7230 ca         1 VIU      -0.097500
     11 C03         -3.5310    -0.8360     1.9820 ca         1 VIU      -0.128000
     12 S09         -5.2750    -0.0590     3.8730 sx         1 VIU       0.268500
     13 N06         -3.9920     2.6620     3.2600 ne         1 VIU      -0.436400
     14 C07         -4.5840     2.4830     4.4570 ca         1 VIU       0.115000
     15 C08         -5.0840     1.2770     4.9780 ca         1 VIU      -0.530000
     16 C0A         -5.5660     1.0980     6.2820 ca         1 VIU      -0.135000
     17 C0D         -4.6930     3.5960     5.3480 ca         1 VIU      -0.061300
     18 C0C         -5.1830     3.4330     6.6230 ca         1 VIU      -0.112000
     19 C0B         -5.6060     2.1840     7.1450 ca         1 VIU       0.301000
     20 N0F         -6.0600     2.0780     8.4330 nh         1 VIU      -0.854400
     21 C0G         -5.9590     3.1370     9.4160 c5         1 VIU       0.236800
     22 C0H         -6.1970     2.4130    10.7380 c5         1 VIU      -0.093400
     23 C0J         -6.5800     0.8450     8.9780 c5         1 VIU       0.236800
     24 C0I         -7.1140     1.2600    10.3450 c5         1 VIU      -0.093400
     25 C0E         -4.2550     4.9470     4.8740 c3         1 VIU      -0.032800
     26 C0Q         -2.1420     3.1600     1.1830 c3         1 VIU      -0.019100
     27 C0R         -0.9890     3.5150     2.1200 c3         1 VIU      -0.082100
     28 H0S         -1.5150     0.9210    -0.0710 ha         1 VIU       0.109000
     29 H18         -0.4620    -1.1610    -1.0120 h1         1 VIU       0.037700
     30 H17         -2.0060    -0.6250    -1.6670 h1         1 VIU       0.037700
     31 H19         -2.6070    -2.7780    -2.4080 hc         1 VIU       0.051950
     32 H1A         -0.8620    -2.9820    -2.5130 hc         1 VIU       0.051950
     33 H1D         -3.6610    -3.1210     0.1920 h1         1 VIU       0.037700
     34 H1E         -2.3800    -3.3700     1.3790 h1         1 VIU       0.037700
     35 H1B         -2.2640    -4.7130    -0.9710 hc         1 VIU       0.051950
     36 H1C         -0.7890    -4.0200    -0.2970 hc         1 VIU       0.051950
     37 H0T         -3.9060    -1.8260     2.2080 ha         1 VIU       0.103000
     38 H0U         -5.9140     0.1200     6.5910 ha         1 VIU       0.103000
     39 H0V         -5.2440     4.3120     7.2530 ha         1 VIU       0.108000
     40 H0Z         -4.9790     3.6220     9.3920 h1         1 VIU       0.036950
     41 H10         -6.7110     3.9200     9.2510 h1         1 VIU       0.036950
     42 H11         -5.2520     2.0270    11.1260 hc         1 VIU       0.051450
     43 H12         -6.6250     3.0660    11.4980 hc         1 VIU       0.051450
     44 H16         -7.3650     0.4240     8.3420 h1         1 VIU       0.036950
     45 H15         -5.7980     0.0790     9.0730 h1         1 VIU       0.036950
     46 H14         -8.1450     1.6100    10.2550 hc         1 VIU       0.051450
     47 H13         -7.1040     0.4380    11.0600 hc         1 VIU       0.051450
     48 H0Y         -4.4270     5.7070     5.6350 hc         1 VIU       0.042367
     49 H0W         -3.1940     4.9540     4.6190 hc         1 VIU       0.042367
     50 H0X         -4.7910     5.2440     3.9700 hc         1 VIU       0.042367
     51 H1F         -1.7970     3.2150     0.1480 hc         1 VIU       0.046700
     52 H1G         -2.9360     3.9000     1.2940 hc         1 VIU       0.046700
     53 H1J         -0.6170     4.5220     1.9220 hc         1 VIU       0.033033
     54 H1H         -1.3080     3.4740     3.1610 hc         1 VIU       0.033033
     55 H1I         -0.1550     2.8220     1.9940 hc         1 VIU       0.033033
     56 H1          -6.3780     0.3170     3.1650 hs         1 VIU       0.255000
@<TRIPOS>BOND
     1     1     2 ar  
     2     1     9 ar  
     3     1    26 1   
     4     2     3 ar  
     5     2    28 1   
     6     3     4 1   
     7     3    11 ar  
     8     4     5 1   
     9     4     7 1   
    10     5     6 1   
    11     5    29 1   
    12     5    30 1   
    13     6     8 1   
    14     6    31 1   
    15     6    32 1   
    16     7     8 1   
    17     7    33 1   
    18     7    34 1   
    19     8    35 1   
    20     8    36 1   
    21     9    10 ar  
    22     9    13 1   
    23    10    11 ar  
    24    10    12 1   
    25    11    37 1   
    26    12    15 2   
    27    12    56 1   
    28    13    14 2   
    29    14    15 ar  
    30    14    17 ar  
    31    15    16 ar  
    32    16    19 ar  
    33    16    38 1   
    34    17    18 ar  
    35    17    25 1   
    36    18    19 ar  
    37    18    39 1   
    38    19    20 1   
    39    20    21 1   
    40    20    23 1   
    41    21    22 1   
    42    21    40 1   
    43    21    41 1   
    44    22    24 1   
    45    22    42 1   
    46    22    43 1   
    47    23    24 1   
    48    23    44 1   
    49    23    45 1   
    50    24    46 1   
    51    24    47 1   
    52    25    48 1   
    53    25    49 1   
    54    25    50 1   
    55    26    27 1   
    56    26    51 1   
    57    26    52 1   
    58    27    53 1   
    59    27    54 1   
    60    27    55 1   
@<TRIPOS>SUBSTRUCTURE
     1 VIU         1 TEMP              0 ****  ****    0 ROOT
