@<TRIPOS>MOLECULE
VIU
   56    60     1     0     0
SMALL
No Charge or Current Charge


@<TRIPOS>ATOM
      1 C00         -2.9610     1.8720     1.3710 ca         1 VIU      -0.063300
      2 C01         -2.3820     0.7860     0.6810 ca         1 VIU      -0.106000
      3 C02         -2.8590    -0.5320     0.8470 ca         1 VIU       0.289000
      4 N0K         -2.2650    -1.6160     0.1460 nh         1 VIU      -0.839400
      5 C0M         -1.3330    -1.4530    -1.0040 c5         1 VIU       0.226800
      6 C0N         -1.3090    -2.8850    -1.5950 c5         1 VIU      -0.093400
      7 C0P         -2.4980    -3.0480     0.4750 c5         1 VIU       0.226800
      8 C0O         -1.3560    -3.7430    -0.3070 c5         1 VIU      -0.093400
      9 C05         -4.0460     1.6360     2.2490 ca         1 VIU       0.259400
     10 C04         -4.5240     0.3250     2.4200 ca         1 VIU      -0.097500
     11 C03         -3.9390    -0.7490     1.7260 ca         1 VIU      -0.128000
     12 S09         -5.9370     0.0100     3.5510 sx         1 VIU       0.268500
     13 N06         -4.6520     2.6780     2.9750 ne         1 VIU      -0.436400
     14 C07         -4.9760     2.5560     4.3320 ca         1 VIU       0.115000
     15 C08         -5.5610     1.3570     4.7660 ca         1 VIU      -0.530000
     16 C0A         -5.8800     1.1820     6.1290 ca         1 VIU      -0.135000
     17 C0D         -4.7080     3.5890     5.2580 ca         1 VIU      -0.061300
     18 C0C         -5.0300     3.4020     6.6190 ca         1 VIU      -0.112000
     19 C0B         -5.6170     2.2010     7.0760 ca         1 VIU       0.301000
     20 N0F         -5.9390     2.0210     8.4500 nh         1 VIU      -0.854400
     21 C0G         -5.4490     2.9040     9.5430 c5         1 VIU       0.236800
     22 C0H         -5.7610     2.0540    10.8020 c5         1 VIU      -0.093400
     23 C0J         -6.7990     0.9210     8.9650 c5         1 VIU       0.236800
     24 C0I         -7.1110     1.4090    10.4030 c5         1 VIU      -0.093400
     25 C0E         -4.0740     4.9020     4.8070 c3         1 VIU      -0.032800
     26 C0Q         -2.3780     3.2700     1.1610 c3         1 VIU      -0.019100
     27 C0R         -1.1710     3.5360     2.0790 c3         1 VIU      -0.082100
     28 H0S         -1.5420     0.9770     0.0200 ha         1 VIU       0.109000
     29 H18         -0.3350    -1.1460    -0.6620 h1         1 VIU       0.037700
     30 H17         -1.6950    -0.7230    -1.7420 h1         1 VIU       0.037700
     31 H19         -2.1830    -3.0690    -2.2310 hc         1 VIU       0.051950
     32 H1A         -0.4150    -3.0710    -2.2010 hc         1 VIU       0.051950
     33 H1D         -3.4840    -3.3790     0.1200 h1         1 VIU       0.037700
     34 H1E         -2.4260    -3.2520     1.5530 h1         1 VIU       0.037700
     35 H1B         -1.5680    -4.8000    -0.5040 hc         1 VIU       0.051950
     36 H1C         -0.4080    -3.6920     0.2430 hc         1 VIU       0.051950
     37 H0T         -4.3360    -1.7480     1.8730 ha         1 VIU       0.103000
     38 H0U         -6.3290     0.2460     6.4480 ha         1 VIU       0.103000
     39 H0V         -4.8250     4.2030     7.3210 ha         1 VIU       0.108000
     40 H0Z         -4.3740     3.1200     9.4640 h1         1 VIU       0.036950
     41 H10         -6.0000     3.8560     9.5590 h1         1 VIU       0.036950
     42 H11         -4.9880     1.2940    10.9700 hc         1 VIU       0.051450
     43 H12         -5.8290     2.6630    11.7100 hc         1 VIU       0.051450
     44 H16         -7.7200     0.7940     8.3780 h1         1 VIU       0.036950
     45 H15         -6.2540    -0.0330     8.9770 h1         1 VIU       0.036950
     46 H14         -7.9230     2.1460    10.4060 hc         1 VIU       0.051450
     47 H13         -7.4060     0.5890    11.0670 hc         1 VIU       0.051450
     48 H0Y         -4.0420     5.6400     5.6170 hc         1 VIU       0.042367
     49 H0W         -3.0440     4.7440     4.4660 hc         1 VIU       0.042367
     50 H0X         -4.6370     5.3490     3.9790 hc         1 VIU       0.042367
     51 H1F         -2.0590     3.3900     0.1190 hc         1 VIU       0.046700
     52 H1G         -3.1340     4.0470     1.3280 hc         1 VIU       0.046700
     53 H1J         -0.7880     4.5520     1.9260 hc         1 VIU       0.033033
     54 H1H         -1.4550     3.4280     3.1330 hc         1 VIU       0.033033
     55 H1I         -0.3610     2.8270     1.8670 hc         1 VIU       0.033033
     56 H1          -6.7760     0.8300     2.7940 hs         1 VIU       0.255000
@<TRIPOS>BOND
     1     1     2 ar  
     2     1     9 ar  
     3     1    26 1   
     4     2     3 ar  
     5     2    28 1   
     6     3     4 1   
     7     3    11 ar  
     8     4     5 1   
     9     4     7 1   
    10     5     6 1   
    11     5    29 1   
    12     5    30 1   
    13     6     8 1   
    14     6    31 1   
    15     6    32 1   
    16     7     8 1   
    17     7    33 1   
    18     7    34 1   
    19     8    35 1   
    20     8    36 1   
    21     9    10 ar  
    22     9    13 1   
    23    10    11 ar  
    24    10    12 1   
    25    11    37 1   
    26    12    15 2   
    27    12    56 1   
    28    13    14 2   
    29    14    15 ar  
    30    14    17 ar  
    31    15    16 ar  
    32    16    19 ar  
    33    16    38 1   
    34    17    18 ar  
    35    17    25 1   
    36    18    19 ar  
    37    18    39 1   
    38    19    20 1   
    39    20    21 1   
    40    20    23 1   
    41    21    22 1   
    42    21    40 1   
    43    21    41 1   
    44    22    24 1   
    45    22    42 1   
    46    22    43 1   
    47    23    24 1   
    48    23    44 1   
    49    23    45 1   
    50    24    46 1   
    51    24    47 1   
    52    25    48 1   
    53    25    49 1   
    54    25    50 1   
    55    26    27 1   
    56    26    51 1   
    57    26    52 1   
    58    27    53 1   
    59    27    54 1   
    60    27    55 1   
@<TRIPOS>SUBSTRUCTURE
     1 VIU         1 TEMP              0 ****  ****    0 ROOT
