@<TRIPOS>MOLECULE
VIV
   81    82     1     0     0
SMALL
No Charge or Current Charge


@<TRIPOS>ATOM
      1 O1          -4.0880    -0.3470    -0.0880 os         1 VIV      -0.354100
      2 O2          -9.4770     1.0490    -0.0770 oh         1 VIV      -0.548100
      3 C1           6.6570     2.0650    -0.5000 c3         1 VIV      -0.087100
      4 C2          -7.7910    -0.6510     0.1530 ca         1 VIV      -0.074300
      5 C3          -6.4220    -1.0170     0.1310 ca         1 VIV      -0.122300
      6 C4          -5.4340    -0.0210    -0.0750 ca         1 VIV       0.113100
      7 C5          -5.8000     1.3280    -0.2950 ca         1 VIV      -0.062300
      8 C6          -7.1690     1.6990    -0.2640 ca         1 VIV      -0.130300
      9 C7          -8.1530     0.7020    -0.0560 ca         1 VIV       0.109100
     10 C8          -8.8690    -1.7220     0.3880 c3         1 VIV      -0.037800
     11 C9          -3.6170    -1.5960     0.4530 c6         1 VIV       0.193000
     12 C10         -6.0060    -2.4870     0.3240 c6         1 VIV      -0.022100
     13 C11         -4.5300    -2.7450    -0.0370 c6         1 VIV      -0.103400
     14 C12         -4.7120     2.3810    -0.5550 c3         1 VIV      -0.036800
     15 C13         -7.5770     3.1690    -0.4630 c3         1 VIV      -0.052800
     16 C14         -3.6070    -1.4590     2.0090 c3         1 VIV      -0.113100
     17 C15         -2.1560    -1.7980    -0.0750 c3         1 VIV      -0.065400
     18 C16         -1.1350    -0.6680     0.2260 c3         1 VIV      -0.071400
     19 C17          0.2460    -0.9190    -0.4290 c3         1 VIV      -0.073400
     20 C18          1.3520     0.1100    -0.0550 c3         1 VIV      -0.056700
     21 C19          0.9960     1.5480    -0.5170 c3         1 VIV      -0.087100
     22 C20          2.7300    -0.3620    -0.6020 c3         1 VIV      -0.073400
     23 C21          3.9480     0.4680    -0.1260 c3         1 VIV      -0.074400
     24 C22          5.2990    -0.1270    -0.5950 c3         1 VIV      -0.072400
     25 C23          6.5660     0.5860    -0.0400 c3         1 VIV      -0.056700
     26 C24          7.8420    -0.2260    -0.4080 c3         1 VIV      -0.072400
     27 C25          9.1510     0.2660     0.2580 c3         1 VIV      -0.074400
     28 C26         10.3580    -0.6570    -0.0390 c3         1 VIV      -0.072400
     29 C27         11.6740    -0.2670     0.6890 c3         1 VIV      -0.060700
     30 C28         12.7640    -1.3400     0.4700 c3         1 VIV      -0.086600
     31 C29         12.1970     1.1330     0.2870 c3         1 VIV      -0.086600
     32 HO21        -9.5410     2.0020    -0.2960 ho         1 VIV       0.462000
     33 HC12         7.5260     2.5670    -0.0590 hc         1 VIV       0.031367
     34 HC13         6.7400     2.1300    -1.5910 hc         1 VIV       0.031367
     35 HC81        -8.5900    -2.4020     1.2010 hc         1 VIV       0.042700
     36 HC82        -9.8400    -1.3010     0.6700 hc         1 VIV       0.042700
     37 HC83        -9.0230    -2.3230    -0.5150 hc         1 VIV       0.042700
     38 H101        -6.6340    -3.1480    -0.2880 hc         1 VIV       0.052200
     39 H102        -6.1830    -2.7790     1.3680 hc         1 VIV       0.052200
     40 H111        -4.4440    -2.8350    -1.1290 hc         1 VIV       0.053700
     41 H112        -4.2020    -3.7060     0.3810 hc         1 VIV       0.053700
     42 H121        -4.5290     2.9820     0.3440 hc         1 VIV       0.043033
     43 H122        -3.7540     1.9450    -0.8570 hc         1 VIV       0.043033
     44 H123        -4.9990     3.0630    -1.3640 hc         1 VIV       0.043033
     45 H131        -8.5380     3.4130     0.0040 hc         1 VIV       0.042367
     46 H132        -6.8550     3.8600    -0.0140 hc         1 VIV       0.042367
     47 H133        -7.6520     3.4130    -1.5300 hc         1 VIV       0.042367
     48 H141        -3.0420    -0.5780     2.3350 hc         1 VIV       0.045033
     49 H142        -4.6150    -1.3490     2.4210 hc         1 VIV       0.045033
     50 H143        -3.1540    -2.3390     2.4800 hc         1 VIV       0.045033
     51 H151        -2.1910    -1.9340    -1.1630 hc         1 VIV       0.046200
     52 H152        -1.7560    -2.7380     0.3260 hc         1 VIV       0.046200
     53 H161        -0.9960    -0.5740     1.3090 hc         1 VIV       0.047200
     54 H162        -1.5440     0.2820    -0.1340 hc         1 VIV       0.047200
     55 H171         0.1280    -0.9410    -1.5190 hc         1 VIV       0.036200
     56 H172         0.5840    -1.9200    -0.1330 hc         1 VIV       0.036200
     57 H18          1.4250     0.1260     1.0400 hc         1 VIV       0.042700
     58 H191         0.0490     1.8850    -0.0810 hc         1 VIV       0.032700
     59 H192         1.7580     2.2690    -0.2010 hc         1 VIV       0.032700
     60 H193         0.9090     1.5970    -1.6090 hc         1 VIV       0.032700
     61 H201         2.7030    -0.3620    -1.6990 hc         1 VIV       0.036700
     62 H202         2.8890    -1.4030    -0.2960 hc         1 VIV       0.036700
     63 H211         3.9400     0.5250     0.9700 hc         1 VIV       0.038200
     64 H212         3.8560     1.4900    -0.5080 hc         1 VIV       0.038200
     65 H221         5.3320    -0.1210    -1.6920 hc         1 VIV       0.036700
     66 H222         5.3290    -1.1810    -0.2900 hc         1 VIV       0.036700
     67 H23          6.4850     0.5860     1.0550 hc         1 VIV       0.043700
     68 H241         7.9710    -0.2230    -1.4970 hc         1 VIV       0.036200
     69 H242         7.6860    -1.2720    -0.1160 hc         1 VIV       0.036200
     70 H251         9.0030     0.3290     1.3430 hc         1 VIV       0.038700
     71 H252         9.3790     1.2760    -0.1000 hc         1 VIV       0.038700
     72 H261        10.5360    -0.6780    -1.1220 hc         1 VIV       0.036700
     73 H262        10.0890    -1.6800     0.2520 hc         1 VIV       0.036700
     74 H27         11.4620    -0.2400     1.7660 hc         1 VIV       0.043700
     75 H281        13.6730    -1.0920     1.0320 hc         1 VIV       0.031533
     76 H282        12.4170    -2.3230     0.8120 hc         1 VIV       0.031533
     77 H283        13.0270    -1.4190    -0.5920 hc         1 VIV       0.031533
     78 H291        11.4920     1.9200     0.5780 hc         1 VIV       0.031533
     79 H292        13.1500     1.3470     0.7840 hc         1 VIV       0.031533
     80 H293        12.3550     1.1940    -0.7970 hc         1 VIV       0.031533
     81 HC11         5.7760     2.6350    -0.1870 hc         1 VIV       0.031367
@<TRIPOS>BOND
     1     1     6 1   
     2     1    11 1   
     3     2     9 1   
     4     2    32 1   
     5     3    25 1   
     6     3    33 1   
     7     3    34 1   
     8     3    81 1   
     9     4     5 ar  
    10     4     9 ar  
    11     4    10 1   
    12     5     6 ar  
    13     5    12 1   
    14     6     7 ar  
    15     7     8 ar  
    16     7    14 1   
    17     8     9 ar  
    18     8    15 1   
    19    10    35 1   
    20    10    36 1   
    21    10    37 1   
    22    11    13 1   
    23    11    16 1   
    24    11    17 1   
    25    12    13 1   
    26    12    38 1   
    27    12    39 1   
    28    13    40 1   
    29    13    41 1   
    30    14    42 1   
    31    14    43 1   
    32    14    44 1   
    33    15    45 1   
    34    15    46 1   
    35    15    47 1   
    36    16    48 1   
    37    16    49 1   
    38    16    50 1   
    39    17    18 1   
    40    17    51 1   
    41    17    52 1   
    42    18    19 1   
    43    18    53 1   
    44    18    54 1   
    45    19    20 1   
    46    19    55 1   
    47    19    56 1   
    48    20    21 1   
    49    20    22 1   
    50    20    57 1   
    51    21    58 1   
    52    21    59 1   
    53    21    60 1   
    54    22    23 1   
    55    22    61 1   
    56    22    62 1   
    57    23    24 1   
    58    23    63 1   
    59    23    64 1   
    60    24    25 1   
    61    24    65 1   
    62    24    66 1   
    63    25    26 1   
    64    25    67 1   
    65    26    27 1   
    66    26    68 1   
    67    26    69 1   
    68    27    28 1   
    69    27    70 1   
    70    27    71 1   
    71    28    29 1   
    72    28    72 1   
    73    28    73 1   
    74    29    30 1   
    75    29    31 1   
    76    29    74 1   
    77    30    75 1   
    78    30    76 1   
    79    30    77 1   
    80    31    78 1   
    81    31    79 1   
    82    31    80 1   
@<TRIPOS>SUBSTRUCTURE
     1 VIV         1 TEMP              0 ****  ****    0 ROOT
