@<TRIPOS>MOLECULE
VIV
   81    82     1     0     0
SMALL
bcc


@<TRIPOS>ATOM
      1 O1          -3.9690    -0.3660    -0.1490 os         1 VIV      -0.330900
      2 O2          -9.2180     1.1750    -0.3090 oh         1 VIV      -0.509100
      3 C1           6.4700     1.9470    -0.1200 c3         1 VIV      -0.087100
      4 C2          -7.6320    -0.5270     0.0080 ca         1 VIV      -0.074300
      5 C3          -6.2980    -0.9500     0.0400 ca         1 VIV      -0.122300
      6 C4          -5.2830    -0.0260    -0.1810 ca         1 VIV       0.113100
      7 C5          -5.5570     1.3170    -0.4740 ca         1 VIV      -0.062300
      8 C6          -6.8880     1.7380    -0.5140 ca         1 VIV      -0.130300
      9 C7          -7.9080     0.8060    -0.2720 ca         1 VIV       0.109100
     10 C8          -8.7330    -1.5160     0.2710 c3         1 VIV      -0.037800
     11 C9          -3.5860    -1.5780     0.5070 c6         1 VIV       0.169800
     12 C10         -5.9620    -2.3890     0.3200 c6         1 VIV      -0.022100
     13 C11         -4.5020    -2.6980     0.0240 c6         1 VIV      -0.103400
     14 C12         -4.3920     2.2370    -0.7200 c3         1 VIV      -0.036800
     15 C13         -7.2910     3.1630    -0.7920 c3         1 VIV      -0.052800
     16 C14         -3.6760    -1.3930     2.0200 c3         1 VIV      -0.113100
     17 C15         -2.1480    -1.8470     0.0620 c3         1 VIV      -0.065400
     18 C16         -1.1370    -0.7550     0.3950 c3         1 VIV      -0.071400
     19 C17          0.2300    -1.0350    -0.2210 c3         1 VIV      -0.073400
     20 C18          1.3270    -0.0460     0.1840 c3         1 VIV      -0.056700
     21 C19          0.9740     1.3820    -0.2260 c3         1 VIV      -0.087100
     22 C20          2.6750    -0.4870    -0.3940 c3         1 VIV      -0.073400
     23 C21          3.8770     0.2740     0.1540 c3         1 VIV      -0.074400
     24 C22          5.2030    -0.2250    -0.4080 c3         1 VIV      -0.072400
     25 C23          6.4470     0.4500     0.1790 c3         1 VIV      -0.056700
     26 C24          7.7090    -0.2480    -0.3350 c3         1 VIV      -0.072400
     27 C25          9.0130     0.2430     0.2820 c3         1 VIV      -0.074400
     28 C26         10.2250    -0.5510    -0.1920 c3         1 VIV      -0.072400
     29 C27         11.5580    -0.1130     0.4220 c3         1 VIV      -0.060700
     30 C28         12.6700    -1.0780     0.0230 c3         1 VIV      -0.086600
     31 C29         11.9330     1.3140     0.0360 c3         1 VIV      -0.086600
     32 HO21        -9.3050     2.1280    -0.4150 ho         1 VIV       0.423000
     33 HC12         7.3310     2.4390     0.3310 hc         1 VIV       0.031367
     34 HC13         6.5140     2.1240    -1.1980 hc         1 VIV       0.031367
     35 HC81        -8.5480    -2.0770     1.1890 hc         1 VIV       0.042700
     36 HC82        -9.7050    -1.0410     0.3690 hc         1 VIV       0.042700
     37 HC83        -8.8090    -2.2520    -0.5340 hc         1 VIV       0.042700
     38 H101        -6.5970    -3.0440    -0.2820 hc         1 VIV       0.052200
     39 H102        -6.2020    -2.6310     1.3600 hc         1 VIV       0.052200
     40 H111        -4.3600    -2.8200    -1.0540 hc         1 VIV       0.053700
     41 H112        -4.2100    -3.6430     0.4880 hc         1 VIV       0.053700
     42 H121        -3.9080     2.5260     0.2160 hc         1 VIV       0.043033
     43 H122        -3.6290     1.7600    -1.3330 hc         1 VIV       0.043033
     44 H123        -4.6810     3.1510    -1.2300 hc         1 VIV       0.043033
     45 H131        -7.8800     3.5840     0.0290 hc         1 VIV       0.042367
     46 H132        -6.4420     3.8260    -0.9190 hc         1 VIV       0.042367
     47 H133        -7.8940     3.2460    -1.7000 hc         1 VIV       0.042367
     48 H141        -3.0490    -0.5680     2.3570 hc         1 VIV       0.045033
     49 H142        -4.6940    -1.1860     2.3530 hc         1 VIV       0.045033
     50 H143        -3.3420    -2.2990     2.5290 hc         1 VIV       0.045033
     51 H151        -2.1510    -2.0170    -1.0210 hc         1 VIV       0.046200
     52 H152        -1.8280    -2.7910     0.5130 hc         1 VIV       0.046200
     53 H161        -1.0240    -0.6650     1.4790 hc         1 VIV       0.047200
     54 H162        -1.5160     0.2060     0.0420 hc         1 VIV       0.047200
     55 H171         0.1410    -1.0440    -1.3140 hc         1 VIV       0.036200
     56 H172         0.5480    -2.0440     0.0650 hc         1 VIV       0.036200
     57 H18          1.4140    -0.0760     1.2780 hc         1 VIV       0.042700
     58 H191         0.0680     1.7340     0.2670 hc         1 VIV       0.032700
     59 H192         1.7660     2.0860     0.0320 hc         1 VIV       0.032700
     60 H193         0.8120     1.4470    -1.3050 hc         1 VIV       0.032700
     61 H201         2.6490    -0.3910    -1.4870 hc         1 VIV       0.036700
     62 H202         2.8120    -1.5550    -0.1900 hc         1 VIV       0.036700
     63 H211         3.8900     0.1830     1.2470 hc         1 VIV       0.038200
     64 H212         3.7650     1.3400    -0.0580 hc         1 VIV       0.038200
     65 H221         5.2070    -0.0970    -1.4980 hc         1 VIV       0.036700
     66 H222         5.2770    -1.3040    -0.2330 hc         1 VIV       0.036700
     67 H23          6.4120     0.3200     1.2690 hc         1 VIV       0.043700
     68 H241         7.7600    -0.1340    -1.4250 hc         1 VIV       0.036200
     69 H242         7.6130    -1.3240    -0.1500 hc         1 VIV       0.036200
     70 H251         8.9440     0.1790     1.3750 hc         1 VIV       0.038700
     71 H252         9.1540     1.3010     0.0490 hc         1 VIV       0.038700
     72 H261        10.2990    -0.4860    -1.2850 hc         1 VIV       0.036700
     73 H262        10.0660    -1.6110     0.0360 hc         1 VIV       0.036700
     74 H27         11.4510    -0.1540     1.5130 hc         1 VIV       0.043700
     75 H281        13.6230    -0.7960     0.4750 hc         1 VIV       0.031533
     76 H282        12.4440    -2.1000     0.3330 hc         1 VIV       0.031533
     77 H283        12.8100    -1.0840    -1.0610 hc         1 VIV       0.031533
     78 H291        11.1900     2.0410     0.3650 hc         1 VIV       0.031533
     79 H292        12.8870     1.6020     0.4820 hc         1 VIV       0.031533
     80 H293        12.0340     1.4100    -1.0480 hc         1 VIV       0.031533
     81 HC11         5.5820     2.4530     0.2610 hc         1 VIV       0.031367
@<TRIPOS>BOND
     1     1     6 1   
     2     1    11 1   
     3     2     9 1   
     4     2    32 1   
     5     3    25 1   
     6     3    33 1   
     7     3    34 1   
     8     3    81 1   
     9     4     5 ar  
    10     4     9 ar  
    11     4    10 1   
    12     5     6 ar  
    13     5    12 1   
    14     6     7 ar  
    15     7     8 ar  
    16     7    14 1   
    17     8     9 ar  
    18     8    15 1   
    19    10    35 1   
    20    10    36 1   
    21    10    37 1   
    22    11    13 1   
    23    11    16 1   
    24    11    17 1   
    25    12    13 1   
    26    12    38 1   
    27    12    39 1   
    28    13    40 1   
    29    13    41 1   
    30    14    42 1   
    31    14    43 1   
    32    14    44 1   
    33    15    45 1   
    34    15    46 1   
    35    15    47 1   
    36    16    48 1   
    37    16    49 1   
    38    16    50 1   
    39    17    18 1   
    40    17    51 1   
    41    17    52 1   
    42    18    19 1   
    43    18    53 1   
    44    18    54 1   
    45    19    20 1   
    46    19    55 1   
    47    19    56 1   
    48    20    21 1   
    49    20    22 1   
    50    20    57 1   
    51    21    58 1   
    52    21    59 1   
    53    21    60 1   
    54    22    23 1   
    55    22    61 1   
    56    22    62 1   
    57    23    24 1   
    58    23    63 1   
    59    23    64 1   
    60    24    25 1   
    61    24    65 1   
    62    24    66 1   
    63    25    26 1   
    64    25    67 1   
    65    26    27 1   
    66    26    68 1   
    67    26    69 1   
    68    27    28 1   
    69    27    70 1   
    70    27    71 1   
    71    28    29 1   
    72    28    72 1   
    73    28    73 1   
    74    29    30 1   
    75    29    31 1   
    76    29    74 1   
    77    30    75 1   
    78    30    76 1   
    79    30    77 1   
    80    31    78 1   
    81    31    79 1   
    82    31    80 1   
@<TRIPOS>SUBSTRUCTURE
     1 VIV         1 TEMP              0 ****  ****    0 ROOT
