@<TRIPOS>MOLECULE
VIW
   37    39     1     0     0
SMALL
abcg2


@<TRIPOS>ATOM
      1 C10          8.0650    36.2610   -20.2890 cg         1 VIW       0.298000
      2 C15          3.8940    36.1510   -20.3510 ca         1 VIW      -0.055000
      3 C17          6.3050    34.7980   -16.8170 ca         1 VIW      -0.068800
      4 C20          6.2080    34.3730   -14.0670 ca         1 VIW      -0.122000
      5 C21          5.3030    35.2470   -14.6880 ca         1 VIW      -0.149000
      6 C22          5.3430    35.4650   -16.0520 ca         1 VIW      -0.078000
      7 O01         11.6700    35.1590   -16.6490 o          1 VIW      -0.728500
      8 C02         11.0660    34.2140   -17.1930 c          1 VIW       0.721000
      9 C03         10.3680    33.2130   -16.2480 c3         1 VIW      -0.240400
     10 N05          8.0630    33.4270   -17.1190 na         1 VIW      -0.046700
     11 C06          7.7290    33.9480   -18.3280 cc         1 VIW      -0.055100
     12 C07          6.6510    34.7920   -18.2120 cd         1 VIW      -0.178400
     13 C08          5.9530    35.4870   -19.2890 ca         1 VIW       0.116200
     14 C09          6.6490    36.1540   -20.3190 ca         1 VIW      -0.092000
     15 N11          9.2100    36.4050   -20.3200 n1         1 VIW      -0.416000
     16 C12          5.9750    36.7930   -21.3850 ca         1 VIW       0.346000
     17 N13          6.6540    37.4570   -22.3580 nv         1 VIW      -1.098000
     18 C14          4.5740    36.7790   -21.3740 ca         1 VIW      -0.224000
     19 C16          4.5640    35.5040   -19.3180 ca         1 VIW      -0.179000
     20 C18          7.2170    33.9370   -16.1710 ca         1 VIW      -0.052200
     21 C19          7.1780    33.7100   -14.7960 ca         1 VIW      -0.103000
     22 O23         10.9960    33.9710   -18.4150 o          1 VIW      -0.728500
     23 H1           2.8120    36.1490   -20.3640 ha         1 VIW       0.096000
     24 H2           6.1520    34.2190   -12.9980 ha         1 VIW       0.094000
     25 H3           4.5630    35.7580   -14.0860 ha         1 VIW       0.092000
     26 H4           4.6400    36.1470   -16.5140 ha         1 VIW       0.105000
     27 H6          10.0940    33.7050   -15.3110 hc         1 VIW       0.033200
     28 H7          11.0940    32.4380   -15.9780 hc         1 VIW       0.033200
     29 H8           8.7960    31.7290   -16.1960 h1         1 VIW       0.040200
     30 H9           9.4350    32.0470   -17.7980 h1         1 VIW       0.040200
     31 H10          8.2750    33.6510   -19.2090 h4         1 VIW       0.238000
     32 H11          7.6150    37.2200   -22.5390 hn         1 VIW       0.465000
     33 H12          6.1400    37.7180   -23.1840 hn         1 VIW       0.465000
     34 H13          4.0320    37.2660   -22.1750 ha         1 VIW       0.099000
     35 H14          4.0030    34.9870   -18.5530 ha         1 VIW       0.119000
     36 H15          7.8810    33.0460   -14.3100 ha         1 VIW       0.114000
     37 C04          9.1630    32.5180   -16.8550 c3         1 VIW       0.095600
@<TRIPOS>BOND
     1     1    14 1   
     2     1    15 3   
     3     2    18 ar  
     4     2    19 ar  
     5     2    23 1   
     6     3     6 ar  
     7     3    12 1   
     8     3    20 ar  
     9     4     5 ar  
    10     4    21 ar  
    11     4    24 1   
    12     5     6 ar  
    13     5    25 1   
    14     6    26 1   
    15     7     8 1   
    16     8     9 1   
    17     8    22 1   
    18     9    27 1   
    19     9    28 1   
    20     9    37 1   
    21    10    11 1   
    22    10    20 1   
    23    10    37 1   
    24    11    12 2   
    25    11    31 1   
    26    12    13 1   
    27    13    14 ar  
    28    13    19 ar  
    29    14    16 ar  
    30    16    17 1   
    31    16    18 ar  
    32    17    32 1   
    33    17    33 1   
    34    18    34 1   
    35    19    35 1   
    36    20    21 ar  
    37    21    36 1   
    38    29    37 1   
    39    30    37 1   
@<TRIPOS>SUBSTRUCTURE
     1 VIW         1 TEMP              0 ****  ****    0 ROOT
