@<TRIPOS>MOLECULE
VIW
   37    39     1     0     0
SMALL
No Charge or Current Charge


@<TRIPOS>ATOM
      1 C10          8.0980    36.1420   -20.5060 cg         1 VIW       0.298000
      2 C15          3.8540    36.2850   -20.2220 ca         1 VIW      -0.055000
      3 C17          6.3130    34.7370   -16.8440 ca         1 VIW      -0.068800
      4 C20          6.1380    34.3530   -14.0850 ca         1 VIW      -0.122000
      5 C21          5.2240    35.2100   -14.7390 ca         1 VIW      -0.149000
      6 C22          5.3090    35.4180   -16.1320 ca         1 VIW      -0.078000
      7 O01         10.8970    35.2690   -17.1160 o          1 VIW      -0.728500
      8 C02         11.1700    34.0800   -17.1230 c          1 VIW       0.721000
      9 C03         10.4600    33.1640   -16.1210 c3         1 VIW      -0.240400
     10 N05          8.1430    33.4660   -17.1290 na         1 VIW      -0.046700
     11 C06          7.8620    33.9800   -18.4070 cc         1 VIW      -0.055100
     12 C07          6.6960    34.7310   -18.2520 cd         1 VIW      -0.178400
     13 C08          5.9970    35.5140   -19.3100 ca         1 VIW       0.116200
     14 C09          6.6640    36.1400   -20.4030 ca         1 VIW      -0.092000
     15 N11          9.2600    36.1460   -20.6110 n1         1 VIW      -0.416000
     16 C12          5.9120    36.8390   -21.3800 ca         1 VIW       0.346000
     17 N13          6.4940    37.4780   -22.4500 nv         1 VIW      -1.098000
     18 C14          4.5190    36.9090   -21.2820 ca         1 VIW      -0.224000
     19 C16          4.5890    35.5940   -19.2510 ca         1 VIW      -0.179000
     20 C18          7.2210    33.9330   -16.2020 ca         1 VIW      -0.052200
     21 C19          7.1580    33.7100   -14.8160 ca         1 VIW      -0.103000
     22 O23         11.9660    33.5700   -17.8960 o          1 VIW      -0.728500
     23 H1           2.7680    36.3260   -20.1580 ha         1 VIW       0.096000
     24 H2           6.0660    34.2030   -13.0100 ha         1 VIW       0.094000
     25 H3           4.4540    35.7190   -14.1640 ha         1 VIW       0.092000
     26 H4           4.6240    36.1060   -16.6180 ha         1 VIW       0.105000
     27 H6          10.1090    33.7310   -15.2510 hc         1 VIW       0.033200
     28 H7          11.1080    32.3180   -15.8630 hc         1 VIW       0.033200
     29 H8           8.8000    31.7700   -16.0860 h1         1 VIW       0.040200
     30 H9           9.5220    31.9840   -17.6810 h1         1 VIW       0.040200
     31 H10          8.4660    33.7410   -19.2750 h4         1 VIW       0.238000
     32 H11          7.4820    37.3340   -22.6550 hn         1 VIW       0.465000
     33 H12          5.9080    37.8420   -23.1990 hn         1 VIW       0.465000
     34 H13          3.9420    37.4430   -22.0320 ha         1 VIW       0.099000
     35 H14          4.0460    35.0700   -18.4710 ha         1 VIW       0.119000
     36 H15          7.8770    33.0700   -14.3110 ha         1 VIW       0.114000
     37 C04          9.2160    32.5180   -16.7720 c3         1 VIW       0.095600
@<TRIPOS>BOND
     1     1    14 1   
     2     1    15 3   
     3     2    18 ar  
     4     2    19 ar  
     5     2    23 1   
     6     3     6 ar  
     7     3    12 1   
     8     3    20 ar  
     9     4     5 ar  
    10     4    21 ar  
    11     4    24 1   
    12     5     6 ar  
    13     5    25 1   
    14     6    26 1   
    15     7     8 1   
    16     8     9 1   
    17     8    22 1   
    18     9    27 1   
    19     9    28 1   
    20     9    37 1   
    21    10    11 1   
    22    10    20 1   
    23    10    37 1   
    24    11    12 2   
    25    11    31 1   
    26    12    13 1   
    27    13    14 ar  
    28    13    19 ar  
    29    14    16 ar  
    30    16    17 1   
    31    16    18 ar  
    32    17    32 1   
    33    17    33 1   
    34    18    34 1   
    35    19    35 1   
    36    20    21 ar  
    37    21    36 1   
    38    29    37 1   
    39    30    37 1   
@<TRIPOS>SUBSTRUCTURE
     1 VIW         1 TEMP              0 ****  ****    0 ROOT
