@<TRIPOS>MOLECULE
VIX
   30    31     1     0     0
SMALL
No Charge or Current Charge


@<TRIPOS>ATOM
      1 C7          22.6220     6.1690   -36.2370 c          1 VIX       0.720000
      2 C8          21.8700     9.8700   -37.4730 c6         1 VIX       0.133800
      3 C9          22.6540    11.2260   -37.4680 c6         1 VIX       0.154600
      4 O1          22.9100     6.1650   -35.0440 o          1 VIX      -0.706000
      5 C1          18.9430     8.1070   -34.4630 ca         1 VIX      -0.119000
      6 C5          20.4700     7.5040   -36.2750 ca         1 VIX      -0.018300
      7 C6          21.8890     7.4260   -36.8520 c3         1 VIX       0.067800
      8 C4          19.3700     7.0490   -37.0320 ca         1 VIX      -0.090500
      9 C3          18.0670     7.1230   -36.5070 ca         1 VIX      -0.119000
     10 C2          17.8550     7.6520   -35.2240 ca         1 VIX       0.104000
     11 Cl          16.2260     7.7450   -34.5710 cl         1 VIX      -0.269000
     12 C           20.2460     8.0330   -34.9860 ca         1 VIX      -0.090500
     13 O           22.8810     5.2310   -36.9820 o          1 VIX      -0.706000
     14 N           22.6100     8.7510   -36.7990 n3         1 VIX      -0.681600
     15 C11         24.0260     8.6790   -37.2850 c6         1 VIX       0.133800
     16 C10         24.7550    10.0650   -37.2880 c6         1 VIX       0.154600
     17 O2          23.9110    11.1140   -36.7590 os         1 VIX      -0.457000
     18 H3          22.8540    11.5420   -38.5020 h1         1 VIX       0.029200
     19 H4          22.0460    12.0060   -36.9900 h1         1 VIX       0.029200
     20 H6          18.7780     8.5180   -33.4700 ha         1 VIX       0.110500
     21 H7          21.7740     7.1840   -37.9180 h1         1 VIX       0.022700
     22 H8          19.5250     6.6380   -38.0270 ha         1 VIX       0.132000
     23 H9          17.2230     6.7710   -37.0960 ha         1 VIX       0.110500
     24 H10         21.0870     8.3900   -34.3950 ha         1 VIX       0.132000
     25 H12         24.0530     8.2750   -38.3080 h1         1 VIX       0.041450
     26 H13         24.6070     7.9860   -36.6600 h1         1 VIX       0.041450
     27 H14         25.0500    10.3260   -38.3140 h1         1 VIX       0.029200
     28 H15         25.6700    10.0060   -36.6800 h1         1 VIX       0.029200
     29 H1          20.8980    10.0350   -36.9870 h1         1 VIX       0.041450
     30 H2          21.6540     9.6030   -38.5180 h1         1 VIX       0.041450
@<TRIPOS>BOND
     1     1     4 1   
     2     1     7 1   
     3     1    13 1   
     4     2     3 1   
     5     2    14 1   
     6     2    29 1   
     7     2    30 1   
     8     3    17 1   
     9     3    18 1   
    10     3    19 1   
    11     5    10 ar  
    12     5    12 ar  
    13     5    20 1   
    14     6     7 1   
    15     6     8 ar  
    16     6    12 ar  
    17     7    14 1   
    18     7    21 1   
    19     8     9 ar  
    20     8    22 1   
    21     9    10 ar  
    22     9    23 1   
    23    10    11 1   
    24    12    24 1   
    25    14    15 1   
    26    15    16 1   
    27    15    25 1   
    28    15    26 1   
    29    16    17 1   
    30    16    27 1   
    31    16    28 1   
@<TRIPOS>SUBSTRUCTURE
     1 VIX         1 TEMP              0 ****  ****    0 ROOT
