@<TRIPOS>MOLECULE
VIX
   30    31     1     0     0
SMALL
abcg2


@<TRIPOS>ATOM
      1 C7          22.5900     6.2910   -36.1690 c          1 VIX       0.720000
      2 C8          21.9980     9.8450   -37.4990 c6         1 VIX       0.133800
      3 C9          22.6480    11.1520   -37.0410 c6         1 VIX       0.154600
      4 O1          23.0710     6.5170   -35.0360 o          1 VIX      -0.706000
      5 C1          18.9390     8.2800   -34.6320 ca         1 VIX      -0.119000
      6 C5          20.4840     7.5830   -36.3660 ca         1 VIX      -0.018300
      7 C6          21.8880     7.4820   -36.9160 c3         1 VIX       0.067800
      8 C4          19.4230     6.9760   -37.0370 ca         1 VIX      -0.090500
      9 C3          18.1310     7.0060   -36.5230 ca         1 VIX      -0.119000
     10 C2          17.9040     7.6620   -35.3220 ca         1 VIX       0.104000
     11 CL          16.2770     7.7190   -34.6660 cl         1 VIX      -0.269000
     12 C           20.2230     8.2320   -35.1580 ca         1 VIX      -0.090500
     13 O           22.5620     5.1910   -36.7720 o          1 VIX      -0.706000
     14 N           22.6230     8.7350   -36.7880 n3         1 VIX      -0.681600
     15 C11         24.0190     8.5950   -37.2250 c6         1 VIX       0.133800
     16 C10         24.6190     9.9670   -37.5610 c6         1 VIX       0.154600
     17 O2          24.0430    10.9880   -36.7560 os         1 VIX      -0.457000
     18 H3          22.5130    11.9260   -37.8060 h1         1 VIX       0.029200
     19 H4          22.1920    11.4940   -36.1110 h1         1 VIX       0.029200
     20 H6          18.7440     8.7890   -33.6980 ha         1 VIX       0.110500
     21 H7          21.8210     7.1820   -37.9720 h1         1 VIX       0.022700
     22 H8          19.6040     6.4740   -37.9800 ha         1 VIX       0.132000
     23 H9          17.3150     6.5360   -37.0530 ha         1 VIX       0.110500
     24 H10         21.0360     8.7110   -34.6310 ha         1 VIX       0.132000
     25 H12         24.0930     7.9600   -38.1230 h1         1 VIX       0.041450
     26 H13         24.5820     8.1090   -36.4290 h1         1 VIX       0.041450
     27 H14         24.4720    10.2050   -38.6210 h1         1 VIX       0.029200
     28 H15         25.6900     9.9720   -37.3630 h1         1 VIX       0.029200
     29 H1          20.9360     9.8840   -37.2660 h1         1 VIX       0.041450
     30 H2          22.0830     9.7250   -38.5920 h1         1 VIX       0.041450
@<TRIPOS>BOND
     1     1     4 1   
     2     1     7 1   
     3     1    13 1   
     4     2     3 1   
     5     2    14 1   
     6     2    29 1   
     7     2    30 1   
     8     3    17 1   
     9     3    18 1   
    10     3    19 1   
    11     5    10 ar  
    12     5    12 ar  
    13     5    20 1   
    14     6     7 1   
    15     6     8 ar  
    16     6    12 ar  
    17     7    14 1   
    18     7    21 1   
    19     8     9 ar  
    20     8    22 1   
    21     9    10 ar  
    22     9    23 1   
    23    10    11 1   
    24    12    24 1   
    25    14    15 1   
    26    15    16 1   
    27    15    25 1   
    28    15    26 1   
    29    16    17 1   
    30    16    27 1   
    31    16    28 1   
@<TRIPOS>SUBSTRUCTURE
     1 VIX         1 TEMP              0 ****  ****    0 ROOT
