@<TRIPOS>MOLECULE
VIY
   45    47     1     0     0
SMALL
abcg2


@<TRIPOS>ATOM
      1 C01          7.4550     6.5460    19.0300 c6         1 VIY      -0.108400
      2 C02          6.4290     7.6270    19.3330 c6         1 VIY       0.177300
      3 C04          5.8990     7.8530    16.8750 c6         1 VIY       0.127700
      4 C05          6.8990     6.7240    16.5630 c6         1 VIY      -0.214700
      5 C06          7.0640     5.7900    17.7650 c6         1 VIY      -0.053400
      6 C07          6.4930     5.9530    15.2890 c          1 VIY       0.719000
      7 O08          7.1710     6.1220    14.2650 o          1 VIY      -0.721500
      8 C15          0.9060     5.1990    17.3460 ca         1 VIY       0.108000
      9 C16         -0.2560     5.8210    16.9190 ca         1 VIY      -0.102000
     10 C17         -0.1980     7.1540    16.5380 ca         1 VIY      -0.126000
     11 C18          1.0000     7.8490    16.5860 ca         1 VIY      -0.066000
     12 C20          6.6610     7.9360    21.7100 ca         1 VIY       0.170100
     13 C21          6.0310     6.7360    22.0390 ca         1 VIY      -0.178500
     14 C22          5.9200     6.3580    23.3720 ca         1 VIY      -0.079000
     15 C23          6.4280     7.1520    24.3890 ca         1 VIY      -0.168000
     16 C24          7.0580     8.3460    24.0560 ca         1 VIY      -0.079000
     17 C25          7.1770     8.7370    22.7330 ca         1 VIY      -0.178500
     18 C03          6.3030     8.5820    18.1590 c6         1 VIY      -0.087400
     19 O09          5.4780     5.2160    15.3960 o          1 VIY      -0.721500
     20 N10          4.5650     7.2770    16.9530 ns         1 VIY      -0.488900
     21 C12          2.1660     7.2110    17.0000 ca         1 VIY      -0.120600
     22 O13          3.4100     9.2230    17.1270 o          1 VIY      -0.646100
     23 C14          2.1150     5.8750    17.3910 ca         1 VIY      -0.060000
     24 O19          6.8080     8.4160    20.4590 os         1 VIY      -0.357100
     25 H27          8.4350     7.0170    18.8980 hc         1 VIY       0.037200
     26 H28          7.5500     5.8450    19.8630 hc         1 VIY       0.037200
     27 H29          5.4500     7.1700    19.5170 h1         1 VIY       0.051700
     28 H32          5.9300     8.5800    16.0550 h1         1 VIY       0.058700
     29 H33          7.8600     7.2150    16.3780 hc         1 VIY       0.048700
     30 H34          7.8290     5.0420    17.5420 hc         1 VIY       0.044700
     31 H35          6.1410     5.2330    17.9450 hc         1 VIY       0.044700
     32 H40         -1.0990     7.6510    16.2040 ha         1 VIY       0.107000
     33 H41          1.0320     8.8890    16.2920 ha         1 VIY       0.133000
     34 H42          5.6220     6.0830    21.2800 ha         1 VIY       0.123000
     35 H43          5.4270     5.4230    23.6090 ha         1 VIY       0.102000
     36 H44          6.3360     6.8470    25.4220 ha         1 VIY       0.103000
     37 H45          7.4640     8.9810    24.8330 ha         1 VIY       0.102000
     38 H46          7.6680     9.6680    22.4790 ha         1 VIY       0.123000
     39 H31          5.5870     9.3710    18.3860 hc         1 VIY       0.057700
     40 H30          7.2690     9.0630    17.9780 hc         1 VIY       0.057700
     41 H37          4.5220     6.3300    16.5740 hn         1 VIY       0.378500
     42 H38          2.9970     5.3640    17.7530 ha         1 VIY       0.147000
     43 C11          3.4410     8.0020    17.0340 c          1 VIY       0.600700
     44 CL26         0.8510     3.5400    17.8450 cl         1 VIY      -0.220000
     45 H39         -1.1920     5.2790    16.8870 ha         1 VIY       0.116000
@<TRIPOS>BOND
     1     1     2 1   
     2     1     5 1   
     3     1    25 1   
     4     1    26 1   
     5     2    18 1   
     6     2    24 1   
     7     2    27 1   
     8     3     4 1   
     9     3    18 1   
    10     3    20 1   
    11     3    28 1   
    12     4     5 1   
    13     4     6 1   
    14     4    29 1   
    15     5    30 1   
    16     5    31 1   
    17     6     7 1   
    18     6    19 1   
    19     8     9 ar  
    20     8    23 ar  
    21     8    44 1   
    22     9    10 ar  
    23     9    45 1   
    24    10    11 ar  
    25    10    32 1   
    26    11    21 ar  
    27    11    33 1   
    28    12    13 ar  
    29    12    17 ar  
    30    12    24 1   
    31    13    14 ar  
    32    13    34 1   
    33    14    15 ar  
    34    14    35 1   
    35    15    16 ar  
    36    15    36 1   
    37    16    17 ar  
    38    16    37 1   
    39    17    38 1   
    40    18    39 1   
    41    18    40 1   
    42    20    41 1   
    43    20    43 1   
    44    21    23 ar  
    45    21    43 1   
    46    22    43 2   
    47    23    42 1   
@<TRIPOS>SUBSTRUCTURE
     1 VIY         1 TEMP              0 ****  ****    0 ROOT
