@<TRIPOS>MOLECULE
VIY
   45    47     1     0     0
SMALL
No Charge or Current Charge


@<TRIPOS>ATOM
      1 C01          7.4360     6.5710    19.1090 c6         1 VIY      -0.108400
      2 C02          6.3940     7.6940    19.3660 c6         1 VIY       0.177300
      3 C04          5.9030     7.8260    16.8370 c6         1 VIY       0.127700
      4 C05          6.9270     6.6770    16.5940 c6         1 VIY      -0.214700
      5 C06          7.0790     5.7570    17.8440 c6         1 VIY      -0.053400
      6 C07          6.6150     5.8660    15.3160 c          1 VIY       0.719000
      7 O08          7.4110     5.9280    14.3920 o          1 VIY      -0.721500
      8 C15          0.8320     5.1120    16.9780 ca         1 VIY       0.108000
      9 C16         -0.3810     5.8050    16.8550 ca         1 VIY      -0.102000
     10 C17         -0.3730     7.2020    16.7220 ca         1 VIY      -0.126000
     11 C18          0.8450     7.9030    16.7130 ca         1 VIY      -0.066000
     12 C20          6.6890     8.0110    21.8050 ca         1 VIY       0.170100
     13 C21          6.0310     6.8080    22.1500 ca         1 VIY      -0.178500
     14 C22          5.9870     6.3880    23.4910 ca         1 VIY      -0.079000
     15 C23          6.5900     7.1660    24.4930 ca         1 VIY      -0.168000
     16 C24          7.2370     8.3660    24.1570 ca         1 VIY      -0.079000
     17 C25          7.2810     8.7850    22.8170 ca         1 VIY      -0.178500
     18 C03          6.2930     8.6100    18.1220 c6         1 VIY      -0.087400
     19 O09          5.6150     5.1610    15.3070 o          1 VIY      -0.721500
     20 N10          4.5390     7.2900    16.9180 ns         1 VIY      -0.488900
     21 C12          2.0780     7.2190    16.8350 ca         1 VIY      -0.120600
     22 O13          3.3850     9.2320    16.7350 o          1 VIY      -0.646100
     23 C14          2.0540     5.8070    16.9690 ca         1 VIY      -0.060000
     24 O19          6.7660     8.4930    20.5100 os         1 VIY      -0.357100
     25 H27          8.4350     7.0140    18.9930 hc         1 VIY       0.037200
     26 H28          7.4960     5.8940    19.9700 hc         1 VIY       0.037200
     27 H29          5.4010     7.2570    19.5410 h1         1 VIY       0.051700
     28 H32          5.9390     8.5140    15.9790 h1         1 VIY       0.058700
     29 H33          7.8970     7.1630    16.4180 hc         1 VIY       0.048700
     30 H34          7.8600     5.0070    17.6580 hc         1 VIY       0.044700
     31 H35          6.1510     5.1960    18.0210 hc         1 VIY       0.044700
     32 H40         -1.3120     7.7440    16.6270 ha         1 VIY       0.107000
     33 H41          0.8280     8.9870    16.6100 ha         1 VIY       0.133000
     34 H42          5.5490     6.1880    21.4010 ha         1 VIY       0.123000
     35 H43          5.4820     5.4610    23.7540 ha         1 VIY       0.102000
     36 H44          6.5540     6.8400    25.5300 ha         1 VIY       0.103000
     37 H45          7.7010     8.9710    24.9340 ha         1 VIY       0.102000
     38 H46          7.7810     9.7150    22.5580 ha         1 VIY       0.123000
     39 H31          5.5660     9.4090    18.3120 hc         1 VIY       0.057700
     40 H30          7.2570     9.1100    17.9600 hc         1 VIY       0.057700
     41 H37          4.4470     6.2840    16.8630 hn         1 VIY       0.378500
     42 H38          2.9670     5.2280    17.0700 ha         1 VIY       0.147000
     43 C11          3.3710     8.0110    16.8240 c          1 VIY       0.600700
     44 Cl26         0.8230     3.3610    17.1470 cl         1 VIY      -0.220000
     45 H39         -1.3220     5.2620    16.8630 ha         1 VIY       0.116000
@<TRIPOS>BOND
     1     1     2 1   
     2     1     5 1   
     3     1    25 1   
     4     1    26 1   
     5     2    18 1   
     6     2    24 1   
     7     2    27 1   
     8     3     4 1   
     9     3    18 1   
    10     3    20 1   
    11     3    28 1   
    12     4     5 1   
    13     4     6 1   
    14     4    29 1   
    15     5    30 1   
    16     5    31 1   
    17     6     7 1   
    18     6    19 1   
    19     8     9 ar  
    20     8    23 ar  
    21     8    44 1   
    22     9    10 ar  
    23     9    45 1   
    24    10    11 ar  
    25    10    32 1   
    26    11    21 ar  
    27    11    33 1   
    28    12    13 ar  
    29    12    17 ar  
    30    12    24 1   
    31    13    14 ar  
    32    13    34 1   
    33    14    15 ar  
    34    14    35 1   
    35    15    16 ar  
    36    15    36 1   
    37    16    17 ar  
    38    16    37 1   
    39    17    38 1   
    40    18    39 1   
    41    18    40 1   
    42    20    41 1   
    43    20    43 1   
    44    21    23 ar  
    45    21    43 1   
    46    22    43 2   
    47    23    42 1   
@<TRIPOS>SUBSTRUCTURE
     1 VIY         1 TEMP              0 ****  ****    0 ROOT
