@<TRIPOS>MOLECULE
VIZ
   43    45     1     0     0
SMALL
abcg2


@<TRIPOS>ATOM
      1 C10         21.6200   -25.4440     6.0990 cc         1 VIZ       0.608100
      2 C13         25.0430   -25.2000     4.9880 c3         1 VIZ      -0.350400
      3 C15         27.3850   -26.2490     3.8130 c3         1 VIZ      -0.251100
      4 C17         28.2970   -25.0830     5.8440 ca         1 VIZ      -0.103000
      5 C20         30.1290   -21.8800     6.2910 ca         1 VIZ      -0.100000
      6 C21         30.6190   -20.8580     5.5240 ca         1 VIZ      -0.106000
      7 C22         30.4660   -20.8830     4.1210 ca         1 VIZ      -0.112000
      8 C24         29.3030   -22.9970     4.2810 ca         1 VIZ      -0.035000
      9 C03         19.6120   -25.7350     7.2520 cc         1 VIZ       0.172800
     10 C04         18.8990   -26.2340     8.4620 c3         1 VIZ      -0.179200
     11 C05         17.3660   -26.0210     8.5490 c          1 VIZ       0.734000
     12 C08         19.1870   -25.0750     6.1550 cd         1 VIZ      -0.239400
     13 C12         23.5340   -25.0780     4.9370 c          1 VIZ       0.735500
     14 C16         28.1280   -25.1120     4.4390 ca         1 VIZ      -0.076300
     15 C18         28.9420   -24.0440     6.4520 ca         1 VIZ      -0.096000
     16 C19         29.4590   -22.9710     5.6910 ca         1 VIZ      -0.033000
     17 C23         29.8240   -21.9270     3.5140 ca         1 VIZ      -0.089000
     18 C25         28.6260   -24.0830     3.6810 ca         1 VIZ      -0.073000
     19 N02         20.9820   -25.9210     7.1680 na         1 VIZ      -0.350900
     20 N11         22.9270   -25.5960     6.0170 nf         1 VIZ      -0.834100
     21 O01         21.6620   -26.5580     8.1460 oh         1 VIZ      -0.372300
     22 O06         16.7490   -25.7220     7.5120 o          1 VIZ      -0.718000
     23 O07         16.8950   -26.2120     9.6830 o          1 VIZ      -0.718000
     24 O26         24.9520   -27.0440     3.1000 o          1 VIZ      -0.506500
     25 O27         25.6920   -24.7440     2.4290 o          1 VIZ      -0.506500
     26 O28         22.9750   -24.5250     3.9970 o          1 VIZ      -0.621100
     27 S09         20.4750   -24.6960     5.0560 ss         1 VIZ       0.019200
     28 S14         25.6750   -25.8150     3.4200 s6         1 VIZ       1.083000
     29 H131        25.3590   -25.8920     5.7690 h1         1 VIZ       0.111700
     30 H132        25.4970   -24.2240     5.1750 h1         1 VIZ       0.111700
     31 H152        27.8080   -26.5490     2.8510 h1         1 VIZ       0.102700
     32 H151        27.3450   -27.1240     4.4630 h1         1 VIZ       0.102700
     33 H211        31.1290   -20.0250     5.9910 ha         1 VIZ       0.110000
     34 H221        30.8590   -20.0690     3.5270 ha         1 VIZ       0.111000
     35 H041        19.3600   -25.7870     9.3470 hc         1 VIZ       0.056200
     36 H042        19.0820   -27.3100     8.5580 hc         1 VIZ       0.056200
     37 H081        18.1720   -24.7980     5.9350 h4         1 VIZ       0.280000
     38 H181        29.0640   -24.0350     7.5290 ha         1 VIZ       0.116000
     39 H231        29.7060   -21.9470     2.4370 ha         1 VIZ       0.117000
     40 H251        28.5170   -24.0960     2.6030 ha         1 VIZ       0.129000
     41 H011        22.5930   -26.5080     7.8530 ho         1 VIZ       0.486000
     42 H171        27.9110   -25.9020     6.4410 ha         1 VIZ       0.115000
     43 H201        30.2470   -21.8640     7.3680 ha         1 VIZ       0.112000
@<TRIPOS>BOND
     1     1    19 1   
     2     1    20 2   
     3     1    27 1   
     4     2    13 1   
     5     2    28 1   
     6     2    29 1   
     7     2    30 1   
     8     3    14 1   
     9     3    28 1   
    10     3    31 1   
    11     3    32 1   
    12     4    14 ar  
    13     4    15 ar  
    14     4    42 1   
    15     5     6 ar  
    16     5    16 ar  
    17     5    43 1   
    18     6     7 ar  
    19     6    33 1   
    20     7    17 ar  
    21     7    34 1   
    22     8    16 ar  
    23     8    17 ar  
    24     8    18 ar  
    25     9    10 1   
    26     9    12 2   
    27     9    19 1   
    28    10    11 1   
    29    10    35 1   
    30    10    36 1   
    31    11    22 1   
    32    11    23 1   
    33    12    27 1   
    34    12    37 1   
    35    13    20 1   
    36    13    26 2   
    37    14    18 ar  
    38    15    16 ar  
    39    15    38 1   
    40    17    39 1   
    41    18    40 1   
    42    19    21 1   
    43    21    41 1   
    44    24    28 2   
    45    25    28 2   
@<TRIPOS>SUBSTRUCTURE
     1 VIZ         1 TEMP              0 ****  ****    0 ROOT
