@<TRIPOS>MOLECULE
VIZ
   43    45     1     0     0
SMALL
No Charge or Current Charge


@<TRIPOS>ATOM
      1 C10         21.5100   -26.4840     5.3590 cc         1 VIZ       0.608100
      2 C13         24.6570   -25.7650     4.3450 c3         1 VIZ      -0.350400
      3 C15         27.2750   -26.1670     3.3570 c3         1 VIZ      -0.251100
      4 C17         27.8350   -25.3760     5.7070 ca         1 VIZ      -0.103000
      5 C20         29.3370   -22.2240     7.0080 ca         1 VIZ      -0.100000
      6 C21         29.8350   -21.0050     6.5170 ca         1 VIZ      -0.106000
      7 C22         29.8320   -20.7480     5.1350 ca         1 VIZ      -0.112000
      8 C24         28.8320   -22.9340     4.7280 ca         1 VIZ      -0.035000
      9 C03         20.4260   -25.6580     7.2510 cc         1 VIZ       0.172800
     10 C04         20.3360   -24.9990     8.6030 c3         1 VIZ      -0.179200
     11 C05         18.9520   -24.4130     8.8780 c          1 VIZ       0.734000
     12 C08         19.3780   -26.1530     6.5000 cd         1 VIZ      -0.239400
     13 C12         23.1950   -25.7280     4.0550 c          1 VIZ       0.735500
     14 C16         27.8250   -25.1230     4.3230 ca         1 VIZ      -0.076300
     15 C18         28.3360   -24.4140     6.6010 ca         1 VIZ      -0.096000
     16 C19         28.8350   -23.1910     6.1160 ca         1 VIZ      -0.033000
     17 C23         29.3320   -21.7110     4.2410 ca         1 VIZ      -0.089000
     18 C25         28.3290   -23.9010     3.8370 ca         1 VIZ      -0.073000
     19 N02         21.6570   -25.8860     6.6150 na         1 VIZ      -0.350900
     20 N11         22.4790   -26.8120     4.5660 nf         1 VIZ      -0.834100
     21 O01         22.9090   -25.5420     7.1950 oh         1 VIZ      -0.372300
     22 O06         18.1030   -25.1500     9.3580 o          1 VIZ      -0.718000
     23 O07         18.7170   -23.2820     8.4790 o          1 VIZ      -0.718000
     24 O26         25.1180   -27.0820     2.1160 o          1 VIZ      -0.506500
     25 O27         25.5160   -24.5780     2.1580 o          1 VIZ      -0.506500
     26 O28         22.6400   -24.8310     3.4450 o          1 VIZ      -0.621100
     27 S09         19.8570   -26.8770     4.9810 ss         1 VIZ       0.019200
     28 S14         25.5670   -25.8820     2.8330 s6         1 VIZ       1.083000
     29 H131        24.9050   -26.6450     4.9440 h1         1 VIZ       0.111700
     30 H132        24.9580   -24.8470     4.8550 h1         1 VIZ       0.111700
     31 H152        27.8710   -26.1960     2.4380 h1         1 VIZ       0.102700
     32 H151        27.2890   -27.1630     3.8130 h1         1 VIZ       0.102700
     33 H211        30.2230   -20.2590     7.2080 ha         1 VIZ       0.110000
     34 H221        30.2180   -19.8040     4.7570 ha         1 VIZ       0.111000
     35 H041        21.0690   -24.1840     8.6050 hc         1 VIZ       0.056200
     36 H042        20.5550   -25.7820     9.3370 hc         1 VIZ       0.056200
     37 H081        18.3260   -26.1350     6.7640 h4         1 VIZ       0.280000
     38 H181        28.3350   -24.6210     7.6690 ha         1 VIZ       0.116000
     39 H231        29.3330   -21.5050     3.1730 ha         1 VIZ       0.117000
     40 H251        28.3260   -23.7020     2.7670 ha         1 VIZ       0.129000
     41 H011        23.2490   -26.3420     7.6590 ho         1 VIZ       0.486000
     42 H171        27.4520   -26.3180     6.0950 ha         1 VIZ       0.115000
     43 H201        29.3430   -22.4160     8.0780 ha         1 VIZ       0.112000
@<TRIPOS>BOND
     1     1    19 1   
     2     1    20 2   
     3     1    27 1   
     4     2    13 1   
     5     2    28 1   
     6     2    29 1   
     7     2    30 1   
     8     3    14 1   
     9     3    28 1   
    10     3    31 1   
    11     3    32 1   
    12     4    14 ar  
    13     4    15 ar  
    14     4    42 1   
    15     5     6 ar  
    16     5    16 ar  
    17     5    43 1   
    18     6     7 ar  
    19     6    33 1   
    20     7    17 ar  
    21     7    34 1   
    22     8    16 ar  
    23     8    17 ar  
    24     8    18 ar  
    25     9    10 1   
    26     9    12 2   
    27     9    19 1   
    28    10    11 1   
    29    10    35 1   
    30    10    36 1   
    31    11    22 1   
    32    11    23 1   
    33    12    27 1   
    34    12    37 1   
    35    13    20 1   
    36    13    26 2   
    37    14    18 ar  
    38    15    16 ar  
    39    15    38 1   
    40    17    39 1   
    41    18    40 1   
    42    19    21 1   
    43    21    41 1   
    44    24    28 2   
    45    25    28 2   
@<TRIPOS>SUBSTRUCTURE
     1 VIZ         1 TEMP              0 ****  ****    0 ROOT
