@<TRIPOS>MOLECULE
VJ0
   24    24     1     0     0
SMALL
No Charge or Current Charge


@<TRIPOS>ATOM
      1 C7          -2.6500    12.6620   -33.8100 ca         1 VJ0      -0.108000
      2 C8           1.7580    13.2000   -35.9300 c3         1 VJ0       0.147900
      3 C1          -4.5050    14.3900   -33.9920 c3         1 VJ0       0.209800
      4 C5          -0.4720    12.9710   -34.8800 ca         1 VJ0       0.104100
      5 C6          -1.3540    12.2010   -34.0940 ca         1 VJ0       0.137000
      6 C4          -0.9100    14.2180   -35.3800 ca         1 VJ0      -0.170000
      7 C3          -2.2090    14.6780   -35.0940 ca         1 VJ0      -0.088000
      8 C2          -3.0920    13.9040   -34.3100 ca         1 VJ0      -0.132300
      9 F           -0.9590    11.0030   -33.6010 f          1 VJ0      -0.171000
     10 O            0.7970    12.4790   -35.1360 os         1 VJ0      -0.330100
     11 C           -5.3100    14.7830   -35.2480 c3         1 VJ0      -0.084100
     12 N           -4.4420    15.5140   -33.0480 n8         1 VJ0      -0.994200
     13 H1          -3.3090    12.0480   -33.2010 ha         1 VJ0       0.134000
     14 H2           2.6920    12.6300   -36.0050 h1         1 VJ0       0.044700
     15 H3           1.3780    13.3670   -36.9460 h1         1 VJ0       0.044700
     16 H4           1.9880    14.1720   -35.4750 h1         1 VJ0       0.044700
     17 H5          -5.0520    13.5720   -33.4990 h1         1 VJ0       0.065700
     18 H6          -0.2620    14.8430   -35.9870 ha         1 VJ0       0.120000
     19 H7          -2.5240    15.6430   -35.4850 ha         1 VJ0       0.112000
     20 H8          -6.3420    15.0370   -34.9790 hc         1 VJ0       0.041367
     21 H9          -4.8680    15.6470   -35.7580 hc         1 VJ0       0.041367
     22 H10         -5.3420    13.9460   -35.9550 hc         1 VJ0       0.041367
     23 H11         -3.9030    15.2140   -32.2280 hn         1 VJ0       0.395500
     24 H12         -3.8530    16.2450   -33.4600 hn         1 VJ0       0.395500
@<TRIPOS>BOND
     1     1     5 ar  
     2     1     8 ar  
     3     1    13 1   
     4     2    10 1   
     5     2    14 1   
     6     2    15 1   
     7     2    16 1   
     8     3     8 1   
     9     3    11 1   
    10     3    12 1   
    11     3    17 1   
    12     4     5 ar  
    13     4     6 ar  
    14     4    10 1   
    15     5     9 1   
    16     6     7 ar  
    17     6    18 1   
    18     7     8 ar  
    19     7    19 1   
    20    11    20 1   
    21    11    21 1   
    22    11    22 1   
    23    12    23 1   
    24    12    24 1   
@<TRIPOS>SUBSTRUCTURE
     1 VJ0         1 TEMP              0 ****  ****    0 ROOT
