@<TRIPOS>MOLECULE
VJ0
   24    24     1     0     0
SMALL
abcg2


@<TRIPOS>ATOM
      1 C7          -2.6880    12.6250   -33.9990 ca         1 VJ0      -0.108000
      2 C8           1.7120    13.1890   -35.8740 c3         1 VJ0       0.147900
      3 C1          -4.4260    14.4580   -33.9100 c3         1 VJ0       0.209800
      4 C5          -0.4800    12.9590   -34.9650 ca         1 VJ0       0.104100
      5 C6          -1.4400    12.1560   -34.3450 ca         1 VJ0       0.137000
      6 C4          -0.8290    14.2820   -35.2310 ca         1 VJ0      -0.170000
      7 C3          -2.0900    14.7620   -34.8830 ca         1 VJ0      -0.088000
      8 C2          -3.0360    13.9500   -34.2650 ca         1 VJ0      -0.132300
      9 F           -1.1170    10.8660   -34.0710 f          1 VJ0      -0.171000
     10 O            0.7130    12.3800   -35.2510 os         1 VJ0      -0.330100
     11 C           -5.3140    14.5320   -35.1520 c3         1 VJ0      -0.084100
     12 N           -4.4490    15.7580   -33.2240 n8         1 VJ0      -0.994200
     13 H1          -3.3860    11.9500   -33.5180 ha         1 VJ0       0.134000
     14 H2           2.5730    12.5400   -36.0140 h1         1 VJ0       0.044700
     15 H3           1.3670    13.5580   -36.8430 h1         1 VJ0       0.044700
     16 H4           1.9840    14.0330   -35.2370 h1         1 VJ0       0.044700
     17 H5          -4.8640    13.7300   -33.2220 h1         1 VJ0       0.065700
     18 H6          -0.1200    14.9430   -35.7060 ha         1 VJ0       0.120000
     19 H7          -2.3260    15.7960   -35.1030 ha         1 VJ0       0.112000
     20 H8          -6.3270    14.8300   -34.8770 hc         1 VJ0       0.041367
     21 H9          -4.9170    15.2650   -35.8600 hc         1 VJ0       0.041367
     22 H10         -5.3550    13.5650   -35.6540 hc         1 VJ0       0.041367
     23 H11         -3.7970    15.7480   -32.4460 hn         1 VJ0       0.395500
     24 H12         -4.1300    16.4890   -33.8520 hn         1 VJ0       0.395500
@<TRIPOS>BOND
     1     1     5 ar  
     2     1     8 ar  
     3     1    13 1   
     4     2    10 1   
     5     2    14 1   
     6     2    15 1   
     7     2    16 1   
     8     3     8 1   
     9     3    11 1   
    10     3    12 1   
    11     3    17 1   
    12     4     5 ar  
    13     4     6 ar  
    14     4    10 1   
    15     5     9 1   
    16     6     7 ar  
    17     6    18 1   
    18     7     8 ar  
    19     7    19 1   
    20    11    20 1   
    21    11    21 1   
    22    11    22 1   
    23    12    23 1   
    24    12    24 1   
@<TRIPOS>SUBSTRUCTURE
     1 VJ0         1 TEMP              0 ****  ****    0 ROOT
