@<TRIPOS>MOLECULE
VJ2
   52    55     1     0     0
SMALL
No Charge or Current Charge


@<TRIPOS>ATOM
      1 C1          22.0030   -11.0990    20.1540 c          1 VJ2       0.589200
      2 N1          23.9580   -13.8660    18.5900 nu         1 VJ2      -0.815200
      3 C2          22.5810   -12.3980    19.8260 cc         1 VJ2      -0.440200
      4 N2          20.9640   -15.6020    19.5990 nb         1 VJ2      -0.167000
      5 C3          23.4640   -12.5990    18.8040 cd         1 VJ2       0.297800
      6 N3          21.3010   -14.5530    17.4580 nb         1 VJ2      -0.167000
      7 C4          23.2990   -15.1770    18.8040 c3         1 VJ2       0.224900
      8 N4          26.1900   -10.6950    15.1500 nu         1 VJ2      -0.974000
      9 C5          23.7350   -15.6910    20.2060 c3         1 VJ2      -0.102600
     10 C6          23.8810   -16.1380    17.7380 c3         1 VJ2      -0.102600
     11 C7          21.7540   -15.1040    18.6140 ca         1 VJ2       0.116300
     12 C8          19.6300   -15.5310    19.4190 ca         1 VJ2       0.113400
     13 C9          19.0770   -14.9690    18.2580 ca         1 VJ2      -0.211000
     14 C10         19.9670   -14.4850    17.2860 ca         1 VJ2       0.113400
     15 C11         23.8960   -11.4520    17.9930 ca         1 VJ2      -0.136800
     16 C12         24.8300   -11.6040    16.9380 ca         1 VJ2      -0.066000
     17 C13         25.2520   -10.5040    16.1740 ca         1 VJ2       0.213000
     18 C14         26.5030    -9.9780    13.9870 ca         1 VJ2       0.423000
     19 C15         25.5230    -9.2010    13.3660 ca         1 VJ2      -0.248000
     20 C16         25.8410    -8.5040    12.1990 ca         1 VJ2       0.404900
     21 C17         28.0020    -9.3130    12.2270 ca         1 VJ2       0.519000
     22 C18         27.7730   -10.0500    13.3990 ca         1 VJ2      -0.176000
     23 C19         28.8240   -10.8350    13.9710 cg         1 VJ2       0.337000
     24 C20         24.7590    -9.2280    16.4910 ca         1 VJ2      -0.064000
     25 C21         23.8260    -9.0630    17.5270 ca         1 VJ2      -0.163000
     26 C22         23.3610   -10.1750    18.2680 ca         1 VJ2       0.127600
     27 N6          29.6710   -11.4860    14.4400 n1         1 VJ2      -0.457000
     28 Cl          29.5680    -9.3210    11.4120 cl         1 VJ2      -0.146000
     29 N5          27.0620    -8.5500    11.6320 nb         1 VJ2      -0.698000
     30 N           22.4110   -10.0170    19.3430 n          1 VJ2      -0.286000
     31 C           21.7910    -8.6850    19.5770 c3         1 VJ2       0.069300
     32 O           21.2140   -10.9820    21.0810 o          1 VJ2      -0.565000
     33 H1          24.7670   -13.8860    17.9740 hn         1 VJ2       0.490000
     34 H2          22.2510   -13.1940    20.4720 ha         1 VJ2       0.215000
     35 H3          26.7730   -11.5250    15.2760 hn         1 VJ2       0.512000
     36 H4          23.3580   -15.0520    21.0120 hc         1 VJ2       0.053200
     37 H5          23.3680   -16.7090    20.3820 hc         1 VJ2       0.053200
     38 H6          24.8280   -15.7150    20.2890 hc         1 VJ2       0.053200
     39 H7          24.9670   -16.2500    17.8520 hc         1 VJ2       0.053200
     40 H8          23.4300   -17.1340    17.8320 hc         1 VJ2       0.053200
     41 H9          23.6840   -15.7750    16.7220 hc         1 VJ2       0.053200
     42 H10         19.0020   -15.9300    20.2140 h4         1 VJ2       0.028100
     43 H11         18.0010   -14.9130    18.1150 ha         1 VJ2       0.138000
     44 H12         19.6100   -14.0380    16.3590 h4         1 VJ2       0.028100
     45 H13         25.2330   -12.5810    16.6930 ha         1 VJ2       0.116000
     46 H14         24.5160    -9.1460    13.7620 ha         1 VJ2       0.140000
     47 H15         25.0930    -7.8930    11.6960 h4         1 VJ2       0.027100
     48 H16         25.1090    -8.3560    15.9470 ha         1 VJ2       0.129000
     49 H17         23.4770    -8.0570    17.7370 ha         1 VJ2       0.129000
     50 H18         20.9820    -8.7300    20.3150 h1         1 VJ2       0.055033
     51 H19         22.5540    -7.9850    19.9390 h1         1 VJ2       0.055033
     52 H20         21.3680    -8.3060    18.6380 h1         1 VJ2       0.055033
@<TRIPOS>BOND
     1     1     3 1   
     2     1    30 1   
     3     1    32 2   
     4     2     5 1   
     5     2     7 1   
     6     2    33 1   
     7     3     5 2   
     8     3    34 1   
     9     4    11 ar  
    10     4    12 ar  
    11     5    15 1   
    12     6    11 ar  
    13     6    14 ar  
    14     7     9 1   
    15     7    10 1   
    16     7    11 1   
    17     8    17 1   
    18     8    18 1   
    19     8    35 1   
    20     9    36 1   
    21     9    37 1   
    22     9    38 1   
    23    10    39 1   
    24    10    40 1   
    25    10    41 1   
    26    12    13 ar  
    27    12    42 1   
    28    13    14 ar  
    29    13    43 1   
    30    14    44 1   
    31    15    16 ar  
    32    15    26 ar  
    33    16    17 ar  
    34    16    45 1   
    35    17    24 ar  
    36    18    19 ar  
    37    18    22 ar  
    38    19    20 ar  
    39    19    46 1   
    40    20    29 ar  
    41    20    47 1   
    42    21    22 ar  
    43    21    28 1   
    44    21    29 ar  
    45    22    23 1   
    46    23    27 3   
    47    24    25 ar  
    48    24    48 1   
    49    25    26 ar  
    50    25    49 1   
    51    26    30 1   
    52    30    31 1   
    53    31    50 1   
    54    31    51 1   
    55    31    52 1   
@<TRIPOS>SUBSTRUCTURE
     1 VJ2         1 TEMP              0 ****  ****    0 ROOT
