@<TRIPOS>MOLECULE
VJ2
   52    55     1     0     0
SMALL
abcg2


@<TRIPOS>ATOM
      1 C1          21.8170   -10.9950    19.8280 c          1 VJ2       0.589200
      2 N1          23.7060   -13.7500    18.1940 nu         1 VJ2      -0.815200
      3 C2          22.2600   -12.2980    19.4380 cc         1 VJ2      -0.440200
      4 N2          20.9890   -15.6940    19.4230 nb         1 VJ2      -0.167000
      5 C3          23.2840   -12.5240    18.5600 cd         1 VJ2       0.297800
      6 N3          21.2720   -14.7440    17.2860 nb         1 VJ2      -0.167000
      7 C4          23.2270   -15.0280    18.7000 c3         1 VJ2       0.224900
      8 N4          26.5680   -10.5150    15.4980 nu         1 VJ2      -0.974000
      9 C5          23.6260   -15.2330    20.1620 c3         1 VJ2      -0.102600
     10 C6          23.8970   -16.1150    17.8480 c3         1 VJ2      -0.102600
     11 C7          21.7240   -15.1510    18.4660 ca         1 VJ2       0.116300
     12 C8          19.6880   -15.8260    19.1870 ca         1 VJ2       0.113400
     13 C9          19.1110   -15.4180    17.9990 ca         1 VJ2      -0.211000
     14 C10         19.9740   -14.8750    17.0600 ca         1 VJ2       0.113400
     15 C11         23.9350   -11.3590    17.9710 ca         1 VJ2      -0.136800
     16 C12         24.9280   -11.4690    16.9920 ca         1 VJ2      -0.066000
     17 C13         25.5470   -10.3570    16.4600 ca         1 VJ2       0.213000
     18 C14         26.5320   -10.0180    14.2490 ca         1 VJ2       0.423000
     19 C15         25.4130    -9.3470    13.7230 ca         1 VJ2      -0.248000
     20 C16         25.4580    -8.8720    12.4380 ca         1 VJ2       0.404900
     21 C17         27.5420    -9.6280    12.0890 ca         1 VJ2       0.519000
     22 C18         27.6390   -10.1590    13.3780 ca         1 VJ2      -0.176000
     23 C19         28.8130   -10.8200    13.8140 cg         1 VJ2       0.337000
     24 C20         25.1740    -9.0910    16.9070 ca         1 VJ2      -0.064000
     25 C21         24.1700    -8.9540    17.8380 ca         1 VJ2      -0.163000
     26 C22         23.5240   -10.0750    18.3830 ca         1 VJ2       0.127600
     27 N6          29.7490   -11.3650    14.2120 n1         1 VJ2      -0.457000
     28 CL          28.8980    -9.8090    11.0340 cl         1 VJ2      -0.146000
     29 N5          26.5080    -9.0000    11.6140 nb         1 VJ2      -0.698000
     30 N           22.5100    -9.9130    19.2970 n          1 VJ2      -0.286000
     31 C           22.1280    -8.5730    19.7090 c3         1 VJ2       0.069300
     32 O           20.8820   -10.8180    20.6050 o          1 VJ2      -0.565000
     33 H1          24.5450   -13.8120    17.6460 hn         1 VJ2       0.490000
     34 H2          21.7250   -13.1080    19.9090 ha         1 VJ2       0.215000
     35 H3          27.3490   -11.0980    15.7620 hn         1 VJ2       0.512000
     36 H4          23.1670   -14.5090    20.8330 hc         1 VJ2       0.053200
     37 H5          23.3520   -16.2280    20.5070 hc         1 VJ2       0.053200
     38 H6          24.7080   -15.1330    20.2460 hc         1 VJ2       0.053200
     39 H7          24.9810   -16.0770    17.9730 hc         1 VJ2       0.053200
     40 H8          23.5590   -17.1010    18.1620 hc         1 VJ2       0.053200
     41 H9          23.6640   -15.9880    16.7910 hc         1 VJ2       0.053200
     42 H10         19.0910   -16.2710    19.9760 h4         1 VJ2       0.028100
     43 H11         18.0530   -15.5200    17.8120 ha         1 VJ2       0.138000
     44 H12         19.6070   -14.5370    16.0970 h4         1 VJ2       0.028100
     45 H13         25.2350   -12.4330    16.6100 ha         1 VJ2       0.116000
     46 H14         24.5160    -9.2110    14.3090 ha         1 VJ2       0.140000
     47 H15         24.5980    -8.3580    12.0290 h4         1 VJ2       0.027100
     48 H16         25.6670    -8.2090    16.5210 ha         1 VJ2       0.129000
     49 H17         23.8980    -7.9570    18.1470 ha         1 VJ2       0.129000
     50 H18         21.3420    -8.6480    20.4490 h1         1 VJ2       0.055033
     51 H19         22.9740    -8.0490    20.1530 h1         1 VJ2       0.055033
     52 H20         21.7580    -7.9920    18.8640 h1         1 VJ2       0.055033
@<TRIPOS>BOND
     1     1     3 1   
     2     1    30 1   
     3     1    32 2   
     4     2     5 1   
     5     2     7 1   
     6     2    33 1   
     7     3     5 2   
     8     3    34 1   
     9     4    11 ar  
    10     4    12 ar  
    11     5    15 1   
    12     6    11 ar  
    13     6    14 ar  
    14     7     9 1   
    15     7    10 1   
    16     7    11 1   
    17     8    17 1   
    18     8    18 1   
    19     8    35 1   
    20     9    36 1   
    21     9    37 1   
    22     9    38 1   
    23    10    39 1   
    24    10    40 1   
    25    10    41 1   
    26    12    13 ar  
    27    12    42 1   
    28    13    14 ar  
    29    13    43 1   
    30    14    44 1   
    31    15    16 ar  
    32    15    26 ar  
    33    16    17 ar  
    34    16    45 1   
    35    17    24 ar  
    36    18    19 ar  
    37    18    22 ar  
    38    19    20 ar  
    39    19    46 1   
    40    20    29 ar  
    41    20    47 1   
    42    21    22 ar  
    43    21    28 1   
    44    21    29 ar  
    45    22    23 1   
    46    23    27 3   
    47    24    25 ar  
    48    24    48 1   
    49    25    26 ar  
    50    25    49 1   
    51    26    30 1   
    52    30    31 1   
    53    31    50 1   
    54    31    51 1   
    55    31    52 1   
@<TRIPOS>SUBSTRUCTURE
     1 VJ2         1 TEMP              0 ****  ****    0 ROOT
