@<TRIPOS>MOLECULE
VJ3
   40    42     1     0     0
SMALL
abcg2


@<TRIPOS>ATOM
      1 C1           7.7580     6.6660    15.5180 c5         1 VJ3      -0.071400
      2 C2           6.9620     6.2660    16.7540 c5         1 VJ3      -0.023300
      3 N3           6.3600     7.5450    17.1690 n          1 VJ3      -0.407800
      4 C4           6.4900     8.5750    16.1480 c5         1 VJ3       0.115000
      5 C5           6.9330     7.7960    14.9170 c5         1 VJ3      -0.091400
      6 C6           5.8840     5.1750    16.5200 c          1 VJ3       0.718000
      7 O7           5.7640     4.6810    15.3920 o          1 VJ3      -0.709000
      8 O8           5.2140     4.8690    17.5400 o          1 VJ3      -0.709000
      9 C9           6.0480     7.8930    18.4440 c          1 VJ3       0.649100
     10 O10          5.9020     9.0640    18.7850 o          1 VJ3      -0.696100
     11 N11          5.8880     6.8320    19.2950 ns         1 VJ3      -0.198000
     12 C12          5.6250     7.0170    20.6590 ca         1 VJ3       0.032000
     13 C13          6.5980     7.5910    21.4760 ca         1 VJ3      -0.121000
     14 C14          6.3960     7.7180    22.8400 ca         1 VJ3      -0.106000
     15 C15          5.2210     7.2490    23.4140 ca         1 VJ3      -0.152000
     16 C16          4.2500     6.6780    22.6070 ca         1 VJ3      -0.095000
     17 C17          4.4230     6.5740    21.2260 cp         1 VJ3      -0.068000
     18 C18          3.3330     6.0150    20.3960 cp         1 VJ3      -0.024000
     19 C19          2.7970     4.7600    20.6800 ca         1 VJ3      -0.082500
     20 C20          1.7520     4.2470    19.9220 ca         1 VJ3      -0.109000
     21 C21          1.2270     4.9830    18.8690 ca         1 VJ3      -0.105000
     22 C22          1.7500     6.2390    18.5830 ca         1 VJ3      -0.109000
     23 C23          2.7940     6.7490    19.3380 ca         1 VJ3      -0.082500
     24 H24          8.7390     7.0440    15.8190 hc         1 VJ3       0.039700
     25 H25          7.9170     5.8330    14.8370 hc         1 VJ3       0.039700
     26 H26          7.6270     5.9090    17.5480 h1         1 VJ3       0.043700
     27 H28          5.5490     9.1060    15.9950 h1         1 VJ3       0.030700
     28 H27          7.2460     9.3160    16.4280 h1         1 VJ3       0.030700
     29 H29          7.4920     8.4200    14.2200 hc         1 VJ3       0.045200
     30 H30          6.0700     7.3910    14.3850 hc         1 VJ3       0.045200
     31 H32          5.5790     5.9580    18.8290 hn         1 VJ3       0.237000
     32 H33          7.5310     7.9150    21.0350 ha         1 VJ3       0.119000
     33 H34          7.1630     8.1680    23.4570 ha         1 VJ3       0.096000
     34 H35          5.0600     7.3320    24.4810 ha         1 VJ3       0.095000
     35 H36          3.3240     6.3310    23.0490 ha         1 VJ3       0.101000
     36 H37          3.2060     4.1760    21.4960 ha         1 VJ3       0.113500
     37 H38          1.3510     3.2680    20.1540 ha         1 VJ3       0.099500
     38 H39          0.4140     4.5830    18.2770 ha         1 VJ3       0.097000
     39 H40          1.3410     6.8240    17.7700 ha         1 VJ3       0.099500
     40 H41          3.1840     7.7340    19.1170 ha         1 VJ3       0.113500
@<TRIPOS>BOND
     1     1     2 1   
     2     1     5 1   
     3     1    24 1   
     4     1    25 1   
     5     2     3 1   
     6     2     6 1   
     7     2    26 1   
     8     3     4 1   
     9     3     9 1   
    10     4     5 1   
    11     4    27 1   
    12     4    28 1   
    13     5    29 1   
    14     5    30 1   
    15     6     7 1   
    16     6     8 1   
    17     9    10 2   
    18     9    11 1   
    19    11    12 1   
    20    11    31 1   
    21    12    13 ar  
    22    12    17 ar  
    23    13    14 ar  
    24    13    32 1   
    25    14    15 ar  
    26    14    33 1   
    27    15    16 ar  
    28    15    34 1   
    29    16    17 ar  
    30    16    35 1   
    31    17    18 1   
    32    18    19 ar  
    33    18    23 ar  
    34    19    20 ar  
    35    19    36 1   
    36    20    21 ar  
    37    20    37 1   
    38    21    22 ar  
    39    21    38 1   
    40    22    23 ar  
    41    22    39 1   
    42    23    40 1   
@<TRIPOS>SUBSTRUCTURE
     1 VJ3         1 TEMP              0 ****  ****    0 ROOT
