@<TRIPOS>MOLECULE
VJ3
   40    42     1     0     0
SMALL
No Charge or Current Charge


@<TRIPOS>ATOM
      1 C1           7.4490     6.4160    15.3690 c5         1 VJ3      -0.071400
      2 C2           6.7420     6.2820    16.7570 c5         1 VJ3      -0.023300
      3 N3           6.6030     7.7110    17.1760 n          1 VJ3      -0.407800
      4 C4           7.0490     8.6610    16.1390 c5         1 VJ3       0.115000
      5 C5           6.9590     7.7950    14.8590 c5         1 VJ3      -0.091400
      6 C6           5.4000     5.4720    16.6550 c          1 VJ3       0.718000
      7 O7           4.6410     5.6330    15.7080 o          1 VJ3      -0.709000
      8 O8           5.1540     4.6820    17.5530 o          1 VJ3      -0.709000
      9 C9           6.2740     8.1250    18.4820 c          1 VJ3       0.649100
     10 O10          6.3670     9.3000    18.8180 o          1 VJ3      -0.696100
     11 N11          5.8400     7.1360    19.3430 ns         1 VJ3      -0.198000
     12 C12          5.5700     7.2090    20.7300 ca         1 VJ3       0.032000
     13 C13          6.4730     7.8630    21.5920 ca         1 VJ3      -0.121000
     14 C14          6.2370     7.8940    22.9750 ca         1 VJ3      -0.106000
     15 C15          5.0970     7.2700    23.5030 ca         1 VJ3      -0.152000
     16 C16          4.1900     6.6240    22.6480 ca         1 VJ3      -0.095000
     17 C17          4.3990     6.5850    21.2470 cp         1 VJ3      -0.068000
     18 C18          3.3800     5.9230    20.3740 cp         1 VJ3      -0.024000
     19 C19          2.9120     4.6210    20.6740 ca         1 VJ3      -0.082500
     20 C20          1.9310     4.0030    19.8790 ca         1 VJ3      -0.109000
     21 C21          1.3940     4.6810    18.7720 ca         1 VJ3      -0.105000
     22 C22          1.8360     5.9780    18.4640 ca         1 VJ3      -0.109000
     23 C23          2.8170     6.5940    19.2590 ca         1 VJ3      -0.082500
     24 H24          8.5380     6.4210    15.4940 hc         1 VJ3       0.039700
     25 H25          7.2120     5.5950    14.6820 hc         1 VJ3       0.039700
     26 H26          7.3960     5.7390    17.4520 h1         1 VJ3       0.043700
     27 H28          6.4040     9.5480    16.0790 h1         1 VJ3       0.030700
     28 H27          8.0790     8.9880    16.3340 h1         1 VJ3       0.030700
     29 H29          7.5760     8.1890    14.0450 hc         1 VJ3       0.045200
     30 H30          5.9280     7.7430    14.4910 hc         1 VJ3       0.045200
     31 H32          5.6980     6.2270    18.9210 hn         1 VJ3       0.237000
     32 H33          7.3680     8.3340    21.1930 ha         1 VJ3       0.119000
     33 H34          6.9400     8.3960    23.6370 ha         1 VJ3       0.096000
     34 H35          4.9130     7.2920    24.5750 ha         1 VJ3       0.095000
     35 H36          3.3030     6.1590    23.0720 ha         1 VJ3       0.101000
     36 H37          3.3190     4.0860    21.5280 ha         1 VJ3       0.113500
     37 H38          1.5870     3.0000    20.1210 ha         1 VJ3       0.099500
     38 H39          0.6350     4.2030    18.1570 ha         1 VJ3       0.097000
     39 H40          1.4170     6.5060    17.6110 ha         1 VJ3       0.099500
     40 H41          3.1350     7.6060    19.0190 ha         1 VJ3       0.113500
@<TRIPOS>BOND
     1     1     2 1   
     2     1     5 1   
     3     1    24 1   
     4     1    25 1   
     5     2     3 1   
     6     2     6 1   
     7     2    26 1   
     8     3     4 1   
     9     3     9 1   
    10     4     5 1   
    11     4    27 1   
    12     4    28 1   
    13     5    29 1   
    14     5    30 1   
    15     6     7 1   
    16     6     8 1   
    17     9    10 2   
    18     9    11 1   
    19    11    12 1   
    20    11    31 1   
    21    12    13 ar  
    22    12    17 ar  
    23    13    14 ar  
    24    13    32 1   
    25    14    15 ar  
    26    14    33 1   
    27    15    16 ar  
    28    15    34 1   
    29    16    17 ar  
    30    16    35 1   
    31    17    18 1   
    32    18    19 ar  
    33    18    23 ar  
    34    19    20 ar  
    35    19    36 1   
    36    20    21 ar  
    37    20    37 1   
    38    21    22 ar  
    39    21    38 1   
    40    22    23 ar  
    41    22    39 1   
    42    23    40 1   
@<TRIPOS>SUBSTRUCTURE
     1 VJ3         1 TEMP              0 ****  ****    0 ROOT
