@<TRIPOS>MOLECULE
VJ5
   49    52     1     0     0
SMALL
bcc


@<TRIPOS>ATOM
      1 C1          23.2200   -15.0120    18.5400 c3         1 VJ5       0.192200
      2 C2          23.4300   -12.5640    18.5850 cc         1 VJ5       0.276800
      3 C3          22.5300   -12.4190    19.6020 cd         1 VJ5      -0.375200
      4 C4          22.1170   -11.1480    20.1190 c          1 VJ5       0.729700
      5 C6          23.6070   -10.1100    18.5180 ca         1 VJ5       0.124600
      6 C10         26.5210    -9.7910    14.2970 ca         1 VJ5       0.283600
      7 C12         25.4240    -8.5980    12.5320 ca         1 VJ5       0.470200
      8 C14         27.6390    -9.8520    13.4320 ca         1 VJ5      -0.239300
      9 C18         21.7640   -15.1420    18.1360 ca         1 VJ5       0.619300
     10 N4          29.7880   -11.0150    14.2290 n1         1 VJ5      -0.364800
     11 C15         28.8340   -10.4880    13.8510 cg         1 VJ5       0.245800
     12 C13         27.5350    -9.2660    12.1690 ca         1 VJ5       0.584300
     13 CL          28.9060    -9.3500    11.1200 cl         1 VJ5      -0.146000
     14 N3          26.4830    -8.6540    11.7120 nb         1 VJ5      -0.697000
     15 C11         25.3840    -9.1330    13.7940 ca         1 VJ5      -0.332300
     16 C9          25.5490   -10.2550    16.4970 ca         1 VJ5       0.078600
     17 C8          25.1360    -9.0180    16.9900 ca         1 VJ5      -0.083000
     18 C7          24.1750    -8.9490    17.9730 ca         1 VJ5      -0.179000
     19 C16         24.9910   -11.4050    17.0130 ca         1 VJ5      -0.083000
     20 C17         24.0230   -11.3610    18.0200 ca         1 VJ5      -0.131800
     21 N1          22.6740   -10.0220    19.5260 n          1 VJ5      -0.353000
     22 O           21.3010   -11.0390    21.0300 o          1 VJ5      -0.635500
     23 N           23.8140   -13.7710    18.1110 nu         1 VJ5      -0.746000
     24 C           24.0160   -16.1770    17.9600 c3         1 VJ5      -0.102100
     25 N6          21.4120   -14.6650    16.9500 nb         1 VJ5      -0.698000
     26 C21         20.1430   -14.8240    16.5950 ca         1 VJ5       0.443700
     27 C20         19.2230   -15.4590    17.4110 ca         1 VJ5      -0.361600
     28 C19         19.7000   -15.9250    18.6230 ca         1 VJ5       0.443700
     29 N5          20.9660   -15.7680    18.9900 nb         1 VJ5      -0.698000
     30 H1          23.2690   -15.0730    19.6310 h1         1 VJ5       0.094700
     31 H2          22.0600   -13.2740    20.0670 ha         1 VJ5       0.166000
     32 H3          21.5160    -8.8400    20.7730 h1         1 VJ5       0.055367
     33 H4          23.1090    -8.1670    20.4240 h1         1 VJ5       0.055367
     34 H5          21.8340    -8.1230    19.1920 h1         1 VJ5       0.055367
     35 H6          24.5490    -8.0950    12.1390 h4         1 VJ5       0.027100
     36 H7          24.4780    -9.0550    14.3770 ha         1 VJ5       0.158000
     37 H8          27.3590   -10.9240    15.7580 hn         1 VJ5       0.457800
     38 H9          25.5770    -8.1040    16.6130 ha         1 VJ5       0.148000
     39 H10         23.8860    -7.9720    18.3310 ha         1 VJ5       0.147000
     40 H11         25.3430   -12.3490    16.6180 ha         1 VJ5       0.136000
     41 H12         24.2590   -13.8020    17.2090 hn         1 VJ5       0.433800
     42 H13         25.0550   -16.1270    18.2850 hc         1 VJ5       0.053033
     43 H14         23.5990   -17.1250    18.2950 hc         1 VJ5       0.053033
     44 H15         23.9900   -16.1620    16.8690 hc         1 VJ5       0.053033
     45 H16         19.8540   -14.4320    15.6260 h4         1 VJ5       0.028600
     46 H17         18.1910   -15.5830    17.1180 ha         1 VJ5       0.157000
     47 H18         19.0470   -16.4360    19.3220 h4         1 VJ5       0.028600
     48 C5          22.2650    -8.7120    20.0020 c3         1 VJ5       0.068300
     49 N2          26.5640   -10.3480    15.5210 nu         1 VJ5      -0.642000
@<TRIPOS>BOND
     1     1     9 1   
     2     1    23 1   
     3     1    24 1   
     4     1    30 1   
     5     2     3 2   
     6     2    20 1   
     7     2    23 1   
     8     3     4 1   
     9     3    31 1   
    10     4    21 1   
    11     4    22 2   
    12     5    18 ar  
    13     5    20 ar  
    14     5    21 1   
    15     6     8 ar  
    16     6    15 ar  
    17     6    49 1   
    18     7    14 ar  
    19     7    15 ar  
    20     7    35 1   
    21     8    11 1   
    22     8    12 ar  
    23     9    25 ar  
    24     9    29 ar  
    25    10    11 3   
    26    12    13 1   
    27    12    14 ar  
    28    15    36 1   
    29    16    17 ar  
    30    16    19 ar  
    31    16    49 1   
    32    17    18 ar  
    33    17    38 1   
    34    18    39 1   
    35    19    20 ar  
    36    19    40 1   
    37    21    48 1   
    38    23    41 1   
    39    24    42 1   
    40    24    43 1   
    41    24    44 1   
    42    25    26 ar  
    43    26    27 ar  
    44    26    45 1   
    45    27    28 ar  
    46    27    46 1   
    47    28    29 ar  
    48    28    47 1   
    49    32    48 1   
    50    33    48 1   
    51    34    48 1   
    52    37    49 1   
@<TRIPOS>SUBSTRUCTURE
     1 VJ5         1 TEMP              0 ****  ****    0 ROOT
