@<TRIPOS>MOLECULE
VJ5
   49    52     1     0     0
SMALL
No Charge or Current Charge


@<TRIPOS>ATOM
      1 C1          23.2030   -15.1710    18.5840 c3         1 VJ5       0.192200
      2 C2          23.4180   -12.6190    18.5880 cc         1 VJ5       0.276800
      3 C3          22.6750   -12.4450    19.7250 cd         1 VJ5      -0.425200
      4 C4          22.2590   -11.1560    20.2770 c          1 VJ5       0.587200
      5 C6          23.5010   -10.1230    18.3870 ca         1 VJ5       0.124600
      6 C10         26.5370    -9.6230    14.0560 ca         1 VJ5       0.422000
      7 C12         25.9790    -7.8550    12.5160 ca         1 VJ5       0.404900
      8 C14         27.7780    -9.7320    13.4130 ca         1 VJ5      -0.174000
      9 C18         21.7080   -15.3470    18.2730 ca         1 VJ5       0.093300
     10 N4          29.5500   -11.4750    14.1700 n1         1 VJ5      -0.454000
     11 C15         28.7600   -10.6870    13.8280 cg         1 VJ5       0.335000
     12 C13         28.0490    -8.8630    12.3460 ca         1 VJ5       0.519000
     13 Cl          29.5840    -8.9040    11.4750 cl         1 VJ5      -0.146000
     14 N3          27.1740    -7.9370    11.9000 nb         1 VJ5      -0.697000
     15 C11         25.6240    -8.6760    13.5880 ca         1 VJ5      -0.249000
     16 C9          25.2950   -10.3300    16.1970 ca         1 VJ5       0.217000
     17 C8          24.9440    -9.0720    16.7070 ca         1 VJ5      -0.065000
     18 C7          24.0690    -8.9690    17.7980 ca         1 VJ5      -0.161000
     19 C16         24.7920   -11.4820    16.8230 ca         1 VJ5      -0.065000
     20 C17         23.9010   -11.3990    17.9240 ca         1 VJ5      -0.131800
     21 N1          22.6610   -10.0210    19.5490 n          1 VJ5      -0.286000
     22 O           21.5870   -11.0960    21.2970 o          1 VJ5      -0.560000
     23 N           23.7180   -13.8730    18.1010 nu         1 VJ5      -0.801200
     24 C           24.0510   -16.3080    17.9810 c3         1 VJ5      -0.102100
     25 N6          21.3100   -15.1890    16.9860 nb         1 VJ5      -0.172000
     26 C21         19.9950   -15.3440    16.7300 ca         1 VJ5       0.115400
     27 C20         19.0830   -15.6570    17.7510 ca         1 VJ5      -0.213000
     28 C19         19.5890   -15.8040    19.0530 ca         1 VJ5       0.115400
     29 N5          20.9020   -15.6510    19.3180 nb         1 VJ5      -0.172000
     30 H1          23.3350   -15.2240    19.6750 h1         1 VJ5       0.094700
     31 H2          22.3100   -13.2820    20.2990 ha         1 VJ5       0.216000
     32 H3          21.2710    -8.7960    20.6400 h1         1 VJ5       0.055367
     33 H4          22.8990    -8.1020    20.4250 h1         1 VJ5       0.055367
     34 H5          21.7460    -8.1660    19.0560 h1         1 VJ5       0.055367
     35 H6          25.2830    -7.1100    12.1330 h4         1 VJ5       0.027100
     36 H7          24.6380    -8.5810    14.0270 ha         1 VJ5       0.140000
     37 H8          26.6870   -11.3530    15.1100 hn         1 VJ5       0.513000
     38 H9          25.3690    -8.1690    16.2780 ha         1 VJ5       0.130000
     39 H10         23.8440    -7.9750    18.1740 ha         1 VJ5       0.129000
     40 H11         25.1120   -12.4450    16.4410 ha         1 VJ5       0.118000
     41 H12         24.1910   -13.8810    17.1990 hn         1 VJ5       0.489000
     42 H13         25.1050   -16.1950    18.2630 hc         1 VJ5       0.053033
     43 H14         23.7040   -17.2790    18.3530 hc         1 VJ5       0.053033
     44 H15         23.9840   -16.3170    16.8870 hc         1 VJ5       0.053033
     45 H16         19.6740   -15.2160    15.6980 h4         1 VJ5       0.028600
     46 H17         18.0240   -15.7810    17.5410 ha         1 VJ5       0.139000
     47 H18         18.9400   -16.0470    19.8930 h4         1 VJ5       0.028600
     48 C5          22.1120    -8.6970    19.9440 c3         1 VJ5       0.068300
     49 N2          26.1850   -10.4630    15.1210 nu         1 VJ5      -0.974000
@<TRIPOS>BOND
     1     1     9 1   
     2     1    23 1   
     3     1    24 1   
     4     1    30 1   
     5     2     3 2   
     6     2    20 1   
     7     2    23 1   
     8     3     4 1   
     9     3    31 1   
    10     4    21 1   
    11     4    22 2   
    12     5    18 ar  
    13     5    20 ar  
    14     5    21 1   
    15     6     8 ar  
    16     6    15 ar  
    17     6    49 1   
    18     7    14 ar  
    19     7    15 ar  
    20     7    35 1   
    21     8    11 1   
    22     8    12 ar  
    23     9    25 ar  
    24     9    29 ar  
    25    10    11 3   
    26    12    13 1   
    27    12    14 ar  
    28    15    36 1   
    29    16    17 ar  
    30    16    19 ar  
    31    16    49 1   
    32    17    18 ar  
    33    17    38 1   
    34    18    39 1   
    35    19    20 ar  
    36    19    40 1   
    37    21    48 1   
    38    23    41 1   
    39    24    42 1   
    40    24    43 1   
    41    24    44 1   
    42    25    26 ar  
    43    26    27 ar  
    44    26    45 1   
    45    27    28 ar  
    46    27    46 1   
    47    28    29 ar  
    48    28    47 1   
    49    32    48 1   
    50    33    48 1   
    51    34    48 1   
    52    37    49 1   
@<TRIPOS>SUBSTRUCTURE
     1 VJ5         1 TEMP              0 ****  ****    0 ROOT
