@<TRIPOS>MOLECULE
VJ6
   81    82     1     0     0
SMALL
abcg2


@<TRIPOS>ATOM
      1 C1           2.0090    -2.0610    -1.2110 c          1 VJ6       0.608300
      2 N1           3.0180    -1.7750    -0.3470 ns         1 VJ6      -0.169000
      3 O1           1.8800    -1.4690    -2.2700 o          1 VJ6      -0.580100
      4 C2           1.0390    -3.0980    -0.7330 ce         1 VJ6      -0.183400
      5 N2          -6.6740    -0.6950    -1.5690 nt         1 VJ6      -0.595000
      6 O2          -3.1310    -2.3330     1.1570 os         1 VJ6      -0.455100
      7 C3          -0.1240    -3.1480    -1.3890 c2         1 VJ6      -0.156200
      8 N3          -3.0830    -2.9050     3.2860 nt         1 VJ6      -0.594000
      9 O3          -4.6640    -1.0120    -0.7120 os         1 VJ6      -0.457100
     10 C4          -1.3530    -3.9300    -1.0660 c3         1 VJ6      -0.049200
     11 O4          -4.8970     0.3870    -2.4710 o          1 VJ6      -0.537000
     12 C5          -2.5820    -3.0130    -1.1020 c3         1 VJ6      -0.091400
     13 O5          -0.6200     4.7430     0.7740 os         1 VJ6      -0.466000
     14 C6          -2.5500    -1.8870    -0.0680 c3         1 VJ6       0.193300
     15 O6           0.2320     1.2640     0.6090 os         1 VJ6      -0.448000
     16 C7          -3.2930    -0.6420    -0.5380 c3         1 VJ6       0.230500
     17 O7          -1.1320    -2.6890     2.1530 o          1 VJ6      -0.554000
     18 C8          -3.1590     0.5660     0.3560 c2         1 VJ6      -0.166400
     19 O8           7.3100     0.3870     0.1010 os         1 VJ6      -0.343100
     20 C9          -2.4120     1.5770    -0.0870 c2         1 VJ6      -0.148200
     21 O9           2.0540     3.1470    -0.5560 os         1 VJ6      -0.445000
     22 C10         -2.1590     2.8880     0.5990 c3         1 VJ6      -0.038500
     23 C11         -0.7380     3.4150     0.3150 c3         1 VJ6       0.177300
     24 C12          0.3430     2.5970     1.0340 c3         1 VJ6       0.159300
     25 C13          1.7560     3.1230     0.8200 c3         1 VJ6       0.131600
     26 C14         -0.3580     5.7030    -0.2210 c3         1 VJ6       0.148900
     27 C15          3.4240     3.1120    -0.8530 c3         1 VJ6       0.205900
     28 C16          4.0510     1.7560    -0.6170 ca         1 VJ6      -0.079300
     29 C17          5.4060     1.6480    -0.3520 ca         1 VJ6      -0.155000
     30 C18          5.9810     0.3970    -0.1370 ca         1 VJ6       0.150100
     31 C19          5.1920    -0.7480    -0.1670 ca         1 VJ6      -0.223000
     32 C20          3.8300    -0.6250    -0.4220 ca         1 VJ6       0.002000
     33 C21          3.2610     0.6140    -0.6670 ca         1 VJ6      -0.132000
     34 C22          1.3830    -3.9360     0.4600 c3         1 VJ6      -0.052900
     35 C23         -2.3410    -2.6530     2.1890 c          1 VJ6       0.644100
     36 C24         -5.3680    -0.3760    -1.6580 c          1 VJ6       0.639100
     37 C25         -3.8590     0.5680     1.6860 c3         1 VJ6      -0.040900
     38 C26         -3.2240     3.8810     0.1170 c3         1 VJ6      -0.083100
     39 C27          0.5530     0.3040     1.5800 c3         1 VJ6       0.142900
     40 C28          7.9470    -0.8490     0.3160 c3         1 VJ6       0.149900
     41 H1           3.1390    -2.3570     0.4670 hn         1 VJ6       0.157000
     42 H2          -6.9960    -1.4310    -0.9660 hn         1 VJ6       0.322000
     43 H3          -7.2900    -0.4100    -2.3070 hn         1 VJ6       0.322000
     44 H4          -0.2250    -2.4930    -2.2500 ha         1 VJ6       0.194000
     45 H5          -2.6340    -3.3100     4.0860 hn         1 VJ6       0.323000
     46 H6          -4.0820    -2.9860     3.2370 hn         1 VJ6       0.323000
     47 H7          -1.4950    -4.7040    -1.8270 hc         1 VJ6       0.057200
     48 H8          -1.2770    -4.4460    -0.1100 hc         1 VJ6       0.057200
     49 H9          -2.6400    -2.5740    -2.1020 hc         1 VJ6       0.060200
     50 H10         -3.4920    -3.6030    -0.9820 hc         1 VJ6       0.060200
     51 H11         -1.5170    -1.5730     0.1040 h1         1 VJ6       0.089700
     52 H12         -2.8550    -0.3910    -1.5080 h1         1 VJ6       0.079700
     53 H13         -1.9920     1.4950    -1.0870 ha         1 VJ6       0.182000
     54 H14         -2.2640     2.7730     1.6830 hc         1 VJ6       0.057700
     55 H15         -0.5670     3.3650    -0.7710 h1         1 VJ6       0.067700
     56 H16          0.1430     2.6760     2.1170 h1         1 VJ6       0.046700
     57 H17          2.4520     2.4720     1.3650 h1         1 VJ6       0.036700
     58 H18          1.8590     4.1230     1.2580 h1         1 VJ6       0.036700
     59 H19          0.5690     5.4960    -0.7630 h1         1 VJ6       0.031700
     60 H20         -1.1690     5.7810    -0.9520 h1         1 VJ6       0.031700
     61 H21         -0.2570     6.6700     0.2730 h1         1 VJ6       0.031700
     62 H22          3.5160     3.3740    -1.9100 h1         1 VJ6       0.053200
     63 H23          3.9770     3.8770    -0.2920 h1         1 VJ6       0.053200
     64 H24          6.0300     2.5320    -0.2940 ha         1 VJ6       0.125000
     65 H25          5.6030    -1.7310     0.0160 ha         1 VJ6       0.119000
     66 H26          2.2000     0.7020    -0.8410 ha         1 VJ6       0.157000
     67 H27          2.3290    -4.4630     0.3190 hc         1 VJ6       0.045367
     68 H28          1.4600    -3.3460     1.3740 hc         1 VJ6       0.045367
     69 H29          0.6310    -4.6960     0.6470 hc         1 VJ6       0.045367
     70 H30         -4.0780     1.5810     2.0190 hc         1 VJ6       0.039367
     71 H31         -4.8100     0.0380     1.6370 hc         1 VJ6       0.039367
     72 H32         -3.2700     0.0920     2.4720 hc         1 VJ6       0.039367
     73 H33         -3.1740     4.0180    -0.9650 hc         1 VJ6       0.039367
     74 H34         -4.2200     3.5020     0.3480 hc         1 VJ6       0.039367
     75 H35         -3.1190     4.8550     0.5920 hc         1 VJ6       0.039367
     76 H36          0.4300    -0.6800     1.1310 h1         1 VJ6       0.032367
     77 H37          1.5870     0.3910     1.9340 h1         1 VJ6       0.032367
     78 H38         -0.1150     0.3650     2.4470 h1         1 VJ6       0.032367
     79 H39          9.0040    -0.6350     0.4550 h1         1 VJ6       0.038700
     80 H40          7.5750    -1.3550     1.2120 h1         1 VJ6       0.038700
     81 H41          7.8370    -1.5250    -0.5380 h1         1 VJ6       0.038700
@<TRIPOS>BOND
     1     1     2 1   
     2     1     3 2   
     3     1     4 1   
     4     2    32 1   
     5     2    41 1   
     6     4     7 2   
     7     4    34 1   
     8     5    36 1   
     9     5    42 1   
    10     5    43 1   
    11     6    14 1   
    12     6    35 1   
    13     7    10 1   
    14     7    44 1   
    15     8    35 1   
    16     8    45 1   
    17     8    46 1   
    18     9    16 1   
    19     9    36 1   
    20    10    12 1   
    21    10    47 1   
    22    10    48 1   
    23    11    36 2   
    24    12    14 1   
    25    12    49 1   
    26    12    50 1   
    27    13    23 1   
    28    13    26 1   
    29    14    16 1   
    30    14    51 1   
    31    15    24 1   
    32    15    39 1   
    33    16    18 1   
    34    16    52 1   
    35    17    35 2   
    36    18    20 2   
    37    18    37 1   
    38    19    30 1   
    39    19    40 1   
    40    20    22 1   
    41    20    53 1   
    42    21    25 1   
    43    21    27 1   
    44    22    23 1   
    45    22    38 1   
    46    22    54 1   
    47    23    24 1   
    48    23    55 1   
    49    24    25 1   
    50    24    56 1   
    51    25    57 1   
    52    25    58 1   
    53    26    59 1   
    54    26    60 1   
    55    26    61 1   
    56    27    28 1   
    57    27    62 1   
    58    27    63 1   
    59    28    29 ar  
    60    28    33 ar  
    61    29    30 ar  
    62    29    64 1   
    63    30    31 ar  
    64    31    32 ar  
    65    31    65 1   
    66    32    33 ar  
    67    33    66 1   
    68    34    67 1   
    69    34    68 1   
    70    34    69 1   
    71    37    70 1   
    72    37    71 1   
    73    37    72 1   
    74    38    73 1   
    75    38    74 1   
    76    38    75 1   
    77    39    76 1   
    78    39    77 1   
    79    39    78 1   
    80    40    79 1   
    81    40    80 1   
    82    40    81 1   
@<TRIPOS>SUBSTRUCTURE
     1 VJ6         1 TEMP              0 ****  ****    0 ROOT
