@<TRIPOS>MOLECULE
VJ6
   81    82     1     0     0
SMALL
No Charge or Current Charge


@<TRIPOS>ATOM
      1 C1           2.1080    -2.1110    -1.6240 c          1 VJ6       0.608300
      2 N1           3.1450    -1.8280    -0.7470 ns         1 VJ6      -0.169000
      3 O1           1.9190    -1.4740    -2.6550 o          1 VJ6      -0.580100
      4 C2           1.1270    -3.1450    -1.1280 ce         1 VJ6      -0.183400
      5 N2          -7.0580    -0.9880    -1.0330 nt         1 VJ6      -0.595000
      6 O2          -3.0090    -2.1930     1.3340 os         1 VJ6      -0.455100
      7 C3          -0.1800    -3.0420    -1.4840 c2         1 VJ6      -0.156200
      8 N3          -2.6490    -2.9890     3.3590 nt         1 VJ6      -0.594000
      9 O3          -4.9300    -1.1020    -0.4590 os         1 VJ6      -0.457100
     10 C4          -1.3550    -3.8690    -0.9860 c3         1 VJ6      -0.049200
     11 O4          -5.6280     0.4640    -1.9970 o          1 VJ6      -0.537000
     12 C5          -2.6610    -3.0390    -0.9320 c3         1 VJ6      -0.091400
     13 O5          -0.6200     4.7830     0.7400 os         1 VJ6      -0.466000
     14 C6          -2.6130    -1.7880     0.0000 c3         1 VJ6       0.193300
     15 O6           0.2360     1.1900     0.4110 os         1 VJ6      -0.448000
     16 C7          -3.5590    -0.6430    -0.4880 c3         1 VJ6       0.230500
     17 O7          -0.8580    -2.6000     2.0530 o          1 VJ6      -0.554000
     18 C8          -3.3960     0.6750     0.2880 c2         1 VJ6      -0.166400
     19 O8           7.1780     0.4210     0.8360 os         1 VJ6      -0.343100
     20 C9          -2.5440     1.6260    -0.1540 c2         1 VJ6      -0.148200
     21 O9           2.1070     3.1180    -0.7080 os         1 VJ6      -0.445000
     22 C10         -2.2270     2.9820     0.4710 c3         1 VJ6      -0.038500
     23 C11         -0.7480     3.4380     0.2130 c3         1 VJ6       0.177300
     24 C12          0.3400     2.5500     0.9080 c3         1 VJ6       0.159300
     25 C13          1.8030     3.0560     0.7060 c3         1 VJ6       0.131600
     26 C14         -0.1130     5.7650    -0.1840 c3         1 VJ6       0.148900
     27 C15          3.5110     3.1430    -1.0440 c3         1 VJ6       0.205900
     28 C16          4.1370     1.7800    -0.7320 ca         1 VJ6      -0.079300
     29 C17          5.4050     1.6890    -0.1270 ca         1 VJ6      -0.155000
     30 C18          5.9370     0.4400     0.2340 ca         1 VJ6       0.150100
     31 C19          5.1870    -0.7340     0.0030 ca         1 VJ6      -0.223000
     32 C20          3.9310    -0.6570    -0.6220 ca         1 VJ6       0.002000
     33 C21          3.4200     0.5990    -0.9980 ca         1 VJ6      -0.132000
     34 C22          1.6220    -4.1920    -0.1330 c3         1 VJ6      -0.052900
     35 C23         -2.0620    -2.5950     2.2220 c          1 VJ6       0.644100
     36 C24         -5.8440    -0.4550    -1.2290 c          1 VJ6       0.639100
     37 C25         -4.2500     0.7950     1.5520 c3         1 VJ6      -0.040900
     38 C26         -3.2680     4.0100    -0.0390 c3         1 VJ6      -0.083100
     39 C27          0.8330     0.1670     1.2290 c3         1 VJ6       0.142900
     40 C28          7.8120    -0.8020     1.2510 c3         1 VJ6       0.149900
     41 H1           3.2360    -2.4730     0.0260 hn         1 VJ6       0.157000
     42 H2          -7.1610    -1.7500    -0.3820 hn         1 VJ6       0.322000
     43 H3          -7.8500    -0.6200    -1.5360 hn         1 VJ6       0.322000
     44 H4          -0.4770    -2.2570    -2.1840 ha         1 VJ6       0.194000
     45 H5          -2.0800    -3.3150     4.1240 hn         1 VJ6       0.323000
     46 H6          -3.6530    -2.9560     3.4310 hn         1 VJ6       0.323000
     47 H7          -1.5080    -4.7280    -1.6520 hc         1 VJ6       0.057200
     48 H8          -1.1570    -4.2860     0.0080 hc         1 VJ6       0.057200
     49 H9          -2.8960    -2.7180    -1.9540 hc         1 VJ6       0.060200
     50 H10         -3.4910    -3.6870    -0.6250 hc         1 VJ6       0.060200
     51 H11         -1.6010    -1.3620    -0.0020 h1         1 VJ6       0.089700
     52 H12         -3.2700    -0.4490    -1.5310 h1         1 VJ6       0.079700
     53 H13         -1.9840     1.4450    -1.0740 ha         1 VJ6       0.182000
     54 H14         -2.3400     2.9190     1.5590 hc         1 VJ6       0.057700
     55 H15         -0.5680     3.4250    -0.8710 h1         1 VJ6       0.067700
     56 H16          0.1270     2.5640     1.9850 h1         1 VJ6       0.046700
     57 H17          2.4920     2.3860     1.2340 h1         1 VJ6       0.036700
     58 H18          1.9150     4.0480     1.1620 h1         1 VJ6       0.036700
     59 H19          0.8920     5.4990    -0.5340 h1         1 VJ6       0.031700
     60 H20         -0.7720     5.8520    -1.0580 h1         1 VJ6       0.031700
     61 H21         -0.0560     6.7480     0.2990 h1         1 VJ6       0.031700
     62 H22          3.6380     3.3500    -2.1150 h1         1 VJ6       0.053200
     63 H23          4.0300     3.9360    -0.4880 h1         1 VJ6       0.053200
     64 H24          5.9750     2.5910     0.0820 ha         1 VJ6       0.125000
     65 H25          5.5610    -1.7070     0.3070 ha         1 VJ6       0.119000
     66 H26          2.4300     0.6750    -1.4390 ha         1 VJ6       0.157000
     67 H27          2.6760    -4.4490    -0.2980 hc         1 VJ6       0.045367
     68 H28          1.5220    -3.8380     0.9000 hc         1 VJ6       0.045367
     69 H29          1.0610    -5.1300    -0.2180 hc         1 VJ6       0.045367
     70 H30         -4.1140     1.7480     2.0720 hc         1 VJ6       0.039367
     71 H31         -5.3200     0.7250     1.3250 hc         1 VJ6       0.039367
     72 H32         -4.0130     0.0060     2.2740 hc         1 VJ6       0.039367
     73 H33         -3.1450     4.1850    -1.1150 hc         1 VJ6       0.039367
     74 H34         -4.2870     3.6420     0.1320 hc         1 VJ6       0.039367
     75 H35         -3.1720     4.9700     0.4820 hc         1 VJ6       0.039367
     76 H36          0.6990    -0.8150     0.7590 h1         1 VJ6       0.032367
     77 H37          1.9090     0.3290     1.3600 h1         1 VJ6       0.032367
     78 H38          0.3620     0.1380     2.2190 h1         1 VJ6       0.032367
     79 H39          8.7910    -0.5900     1.6970 h1         1 VJ6       0.038700
     80 H40          7.2020    -1.3220     2.0010 h1         1 VJ6       0.038700
     81 H41          7.9650    -1.4720     0.3950 h1         1 VJ6       0.038700
@<TRIPOS>BOND
     1     1     2 1   
     2     1     3 2   
     3     1     4 1   
     4     2    32 1   
     5     2    41 1   
     6     4     7 2   
     7     4    34 1   
     8     5    36 1   
     9     5    42 1   
    10     5    43 1   
    11     6    14 1   
    12     6    35 1   
    13     7    10 1   
    14     7    44 1   
    15     8    35 1   
    16     8    45 1   
    17     8    46 1   
    18     9    16 1   
    19     9    36 1   
    20    10    12 1   
    21    10    47 1   
    22    10    48 1   
    23    11    36 2   
    24    12    14 1   
    25    12    49 1   
    26    12    50 1   
    27    13    23 1   
    28    13    26 1   
    29    14    16 1   
    30    14    51 1   
    31    15    24 1   
    32    15    39 1   
    33    16    18 1   
    34    16    52 1   
    35    17    35 2   
    36    18    20 2   
    37    18    37 1   
    38    19    30 1   
    39    19    40 1   
    40    20    22 1   
    41    20    53 1   
    42    21    25 1   
    43    21    27 1   
    44    22    23 1   
    45    22    38 1   
    46    22    54 1   
    47    23    24 1   
    48    23    55 1   
    49    24    25 1   
    50    24    56 1   
    51    25    57 1   
    52    25    58 1   
    53    26    59 1   
    54    26    60 1   
    55    26    61 1   
    56    27    28 1   
    57    27    62 1   
    58    27    63 1   
    59    28    29 ar  
    60    28    33 ar  
    61    29    30 ar  
    62    29    64 1   
    63    30    31 ar  
    64    31    32 ar  
    65    31    65 1   
    66    32    33 ar  
    67    33    66 1   
    68    34    67 1   
    69    34    68 1   
    70    34    69 1   
    71    37    70 1   
    72    37    71 1   
    73    37    72 1   
    74    38    73 1   
    75    38    74 1   
    76    38    75 1   
    77    39    76 1   
    78    39    77 1   
    79    39    78 1   
    80    40    79 1   
    81    40    80 1   
    82    40    81 1   
@<TRIPOS>SUBSTRUCTURE
     1 VJ6         1 TEMP              0 ****  ****    0 ROOT
