@<TRIPOS>MOLECULE
VJ7
   53    56     1     0     0
SMALL
No Charge or Current Charge


@<TRIPOS>ATOM
      1 C10         20.6190    33.6090   -40.5110 ca         1 VJ7      -0.098000
      2 C13         19.0450    31.2990   -40.1920 ca         1 VJ7      -0.118000
      3 C15         20.4490    27.4990   -38.5780 ca         1 VJ7       0.031500
      4 C17         17.0600    25.0580   -38.3880 c          1 VJ7       0.637100
      5 C21         13.6310    25.2780   -41.7570 cc         1 VJ7      -0.159100
      6 C22         13.3580    24.7440   -43.0110 cd         1 VJ7      -0.129400
      7 C24         14.5970    24.3870   -43.6640 ca         1 VJ7      -0.096800
      8 C26         16.1950    23.5850   -45.2740 ca         1 VJ7      -0.143000
      9 C28         16.9500    24.4890   -43.1200 ca         1 VJ7      -0.134000
     10 O01         19.1140    24.8060   -36.0330 o          1 VJ7      -0.529000
     11 C03         19.6870    26.9290   -37.5380 ca         1 VJ7      -0.335500
     12 C04         18.9970    27.7620   -36.6330 ca         1 VJ7       0.031500
     13 C05         19.0710    29.1570   -36.7730 ca         1 VJ7      -0.187500
     14 C06         19.8190    29.7250   -37.8140 ca         1 VJ7       0.200100
     15 O07         19.8790    31.0960   -37.9220 os         1 VJ7      -0.247200
     16 C08         19.8560    31.7520   -39.1320 ca         1 VJ7       0.090100
     17 C09         20.6330    32.9120   -39.2900 ca         1 VJ7      -0.118000
     18 C11         19.8200    33.1500   -41.5730 ca         1 VJ7      -0.109000
     19 C12         19.0310    31.9970   -41.4130 ca         1 VJ7      -0.098000
     20 C14         20.5170    28.8950   -38.7110 ca         1 VJ7      -0.187500
     21 N16         18.3670    24.6970   -38.4360 ns         1 VJ7      -0.588300
     22 C18         16.2120    24.5430   -39.5450 c3         1 VJ7      -0.193400
     23 C19         15.8420    25.6970   -40.4980 c3         1 VJ7       0.091600
     24 N20         15.0340    25.2500   -41.6460 na         1 VJ7      -0.098700
     25 C25         14.8490    23.8190   -44.9200 ca         1 VJ7      -0.058000
     26 C27         17.2400    23.9180   -44.3780 ca         1 VJ7      -0.092000
     27 C29         15.6020    24.7120   -42.7940 ca         1 VJ7      -0.044200
     28 O30         16.5820    25.7270   -37.4870 o          1 VJ7      -0.556100
     29 O31         20.8040    24.5450   -37.9390 o          1 VJ7      -0.529000
     30 H1          21.2250    34.5050   -40.6340 ha         1 VJ7       0.119500
     31 H2          18.4240    30.4150   -40.0720 ha         1 VJ7       0.130000
     32 H3          20.9890    26.8680   -39.2840 ha         1 VJ7       0.139500
     33 H4          12.9760    25.6550   -40.9780 h4         1 VJ7       0.213000
     34 H5          16.4300    23.1450   -46.2410 ha         1 VJ7       0.111000
     35 H6          17.7520    24.7440   -42.4320 ha         1 VJ7       0.109000
     36 H7          18.4000    27.3370   -35.8260 ha         1 VJ7       0.139500
     37 H8          18.5410    29.8020   -36.0770 ha         1 VJ7       0.135500
     38 H9          21.2490    33.2670   -38.4680 ha         1 VJ7       0.130000
     39 H10         19.8080    33.6900   -42.5180 ha         1 VJ7       0.119000
     40 H11         18.4070    31.6460   -42.2330 ha         1 VJ7       0.119500
     41 H12         21.1130    29.3310   -39.5080 ha         1 VJ7       0.135500
     42 H13         18.7180    24.1540   -39.2060 hn         1 VJ7       0.347500
     43 H14         15.2870    24.1170   -39.1410 hc         1 VJ7       0.079200
     44 H15         16.7580    23.7770   -40.1090 hc         1 VJ7       0.079200
     45 H16         16.7530    26.1820   -40.8710 h1         1 VJ7       0.073700
     46 H17         15.2700    26.4560   -39.9480 h1         1 VJ7       0.073700
     47 H18         11.7910    23.5030   -43.8210 hc         1 VJ7       0.038033
     48 H19         11.2040    24.9080   -42.9150 hc         1 VJ7       0.038033
     49 H20         11.8830    25.1220   -44.5370 hc         1 VJ7       0.038033
     50 H21         14.0370    23.5670   -45.5980 ha         1 VJ7       0.115000
     51 H22         18.2740    23.7320   -44.6610 ha         1 VJ7       0.108000
     52 S02         19.5850    25.1400   -37.3820 sy         1 VJ7       1.190300
     53 C23         11.9850    24.5600   -43.6020 c3         1 VJ7      -0.015900
@<TRIPOS>BOND
     1     1    17 ar  
     2     1    18 ar  
     3     1    30 1   
     4     2    16 ar  
     5     2    19 ar  
     6     2    31 1   
     7     3    11 ar  
     8     3    20 ar  
     9     3    32 1   
    10     4    21 1   
    11     4    22 1   
    12     4    28 2   
    13     5     6 2   
    14     5    24 1   
    15     5    33 1   
    16     6     7 1   
    17     6    53 1   
    18     7    25 ar  
    19     7    27 ar  
    20     8    25 ar  
    21     8    26 ar  
    22     8    34 1   
    23     9    26 ar  
    24     9    27 ar  
    25     9    35 1   
    26    10    52 2   
    27    11    12 ar  
    28    11    52 1   
    29    12    13 ar  
    30    12    36 1   
    31    13    14 ar  
    32    13    37 1   
    33    14    15 1   
    34    14    20 ar  
    35    15    16 1   
    36    16    17 ar  
    37    17    38 1   
    38    18    19 ar  
    39    18    39 1   
    40    19    40 1   
    41    20    41 1   
    42    21    42 1   
    43    21    52 1   
    44    22    23 1   
    45    22    43 1   
    46    22    44 1   
    47    23    24 1   
    48    23    45 1   
    49    23    46 1   
    50    24    27 1   
    51    25    50 1   
    52    26    51 1   
    53    29    52 2   
    54    47    53 1   
    55    48    53 1   
    56    49    53 1   
@<TRIPOS>SUBSTRUCTURE
     1 VJ7         1 TEMP              0 ****  ****    0 ROOT
