@<TRIPOS>MOLECULE
VJ7
   53    56     1     0     0
SMALL
abcg2


@<TRIPOS>ATOM
      1 C10         22.1570    33.2080   -39.9750 ca         1 VJ7      -0.098000
      2 C13         19.7780    31.8270   -40.3860 ca         1 VJ7      -0.118000
      3 C15         20.1960    27.7910   -38.3680 ca         1 VJ7       0.031500
      4 C17         16.9500    25.4890   -38.8090 c          1 VJ7       0.637100
      5 C21         13.5400    23.8960   -41.5670 cc         1 VJ7      -0.159100
      6 C22         13.2930    23.3040   -42.7700 cd         1 VJ7      -0.129400
      7 C24         14.2310    23.8800   -43.6880 ca         1 VJ7      -0.096800
      8 C26         15.4860    24.4260   -45.6540 ca         1 VJ7      -0.143000
      9 C28         16.0320    25.5430   -43.5660 ca         1 VJ7      -0.134000
     10 O01         18.2870    25.4120   -35.9720 o          1 VJ7      -0.529000
     11 C03         19.2680    27.3530   -37.4310 ca         1 VJ7      -0.335500
     12 C04         18.5000    28.2570   -36.7100 ca         1 VJ7       0.031500
     13 C05         18.6570    29.6100   -36.9360 ca         1 VJ7      -0.187500
     14 C06         19.5750    30.0560   -37.8850 ca         1 VJ7       0.200100
     15 O07         19.6700    31.3940   -38.0320 os         1 VJ7      -0.247200
     16 C08         20.3300    31.9260   -39.1160 ca         1 VJ7       0.090100
     17 C09         21.5160    32.6070   -38.8990 ca         1 VJ7      -0.118000
     18 C11         21.6200    33.1160   -41.2520 ca         1 VJ7      -0.109000
     19 C12         20.4320    32.4240   -41.4530 ca         1 VJ7      -0.098000
     20 C14         20.3500    29.1460   -38.6010 ca         1 VJ7      -0.187500
     21 N16         18.2280    25.0900   -38.5040 ns         1 VJ7      -0.588300
     22 C18         16.3680    24.8020   -40.0160 c3         1 VJ7      -0.193400
     23 C19         15.1490    25.5300   -40.5710 c3         1 VJ7       0.091600
     24 N20         14.5610    24.8100   -41.6730 na         1 VJ7      -0.098700
     25 C25         14.4780    23.6970   -45.0530 ca         1 VJ7      -0.058000
     26 C27         16.2560    25.3390   -44.9150 ca         1 VJ7      -0.092000
     27 C29         15.0110    24.8080   -42.9640 ca         1 VJ7      -0.044200
     28 O30         16.3600    26.3080   -38.1420 o          1 VJ7      -0.556100
     29 O31         20.3710    24.9720   -37.2950 o          1 VJ7      -0.529000
     30 H1          23.0810    33.7460   -39.8120 ha         1 VJ7       0.119500
     31 H2          18.8450    31.2970   -40.5380 ha         1 VJ7       0.130000
     32 H3          20.8040    27.0900   -38.9250 ha         1 VJ7       0.139500
     33 H4          13.0510    23.7420   -40.6160 h4         1 VJ7       0.213000
     34 H5          15.6900    24.2940   -46.7090 ha         1 VJ7       0.111000
     35 H6          16.6330    26.2490   -43.0060 ha         1 VJ7       0.109000
     36 H7          17.7820    27.9180   -35.9780 ha         1 VJ7       0.139500
     37 H8          18.0640    30.3260   -36.3820 ha         1 VJ7       0.135500
     38 H9          21.9290    32.6740   -37.9010 ha         1 VJ7       0.130000
     39 H10         22.1230    33.5840   -42.0880 ha         1 VJ7       0.119000
     40 H11         20.0060    32.3530   -42.4450 ha         1 VJ7       0.119500
     41 H12         21.0770    29.4780   -39.3290 ha         1 VJ7       0.135500
     42 H13         18.7240    24.4420   -39.1060 hn         1 VJ7       0.347500
     43 H14         16.0890    23.7870   -39.7140 hc         1 VJ7       0.079200
     44 H15         17.1350    24.6890   -40.7860 hc         1 VJ7       0.079200
     45 H16         15.4210    26.5320   -40.9070 h1         1 VJ7       0.073700
     46 H17         14.3880    25.6480   -39.8010 h1         1 VJ7       0.073700
     47 H18         12.7100    21.3610   -43.4750 hc         1 VJ7       0.038033
     48 H19         11.6900    22.0060   -42.1940 hc         1 VJ7       0.038033
     49 H20         11.5520    22.6290   -43.8340 hc         1 VJ7       0.038033
     50 H21         13.8890    22.9940   -45.6300 ha         1 VJ7       0.115000
     51 H22         17.0410    25.8940   -45.4110 ha         1 VJ7       0.108000
     52 S02         19.0840    25.6260   -37.1610 sy         1 VJ7       1.190300
     53 C23         12.2610    22.2760   -43.0820 c3         1 VJ7      -0.015900
@<TRIPOS>BOND
     1     1    17 ar  
     2     1    18 ar  
     3     1    30 1   
     4     2    16 ar  
     5     2    19 ar  
     6     2    31 1   
     7     3    11 ar  
     8     3    20 ar  
     9     3    32 1   
    10     4    21 1   
    11     4    22 1   
    12     4    28 2   
    13     5     6 2   
    14     5    24 1   
    15     5    33 1   
    16     6     7 1   
    17     6    53 1   
    18     7    25 ar  
    19     7    27 ar  
    20     8    25 ar  
    21     8    26 ar  
    22     8    34 1   
    23     9    26 ar  
    24     9    27 ar  
    25     9    35 1   
    26    10    52 2   
    27    11    12 ar  
    28    11    52 1   
    29    12    13 ar  
    30    12    36 1   
    31    13    14 ar  
    32    13    37 1   
    33    14    15 1   
    34    14    20 ar  
    35    15    16 1   
    36    16    17 ar  
    37    17    38 1   
    38    18    19 ar  
    39    18    39 1   
    40    19    40 1   
    41    20    41 1   
    42    21    42 1   
    43    21    52 1   
    44    22    23 1   
    45    22    43 1   
    46    22    44 1   
    47    23    24 1   
    48    23    45 1   
    49    23    46 1   
    50    24    27 1   
    51    25    50 1   
    52    26    51 1   
    53    29    52 2   
    54    47    53 1   
    55    48    53 1   
    56    49    53 1   
@<TRIPOS>SUBSTRUCTURE
     1 VJ7         1 TEMP              0 ****  ****    0 ROOT
