@<TRIPOS>MOLECULE
VJ9
   23    23     1     0     0
SMALL
No Charge or Current Charge


@<TRIPOS>ATOM
      1 C7          -0.4530    13.4610   -35.4870 ca         1 VJ9      -0.232200
      2 C8          -1.2210    14.6480   -35.4480 ca         1 VJ9       0.025000
      3 O1          -2.8640    17.0030   -35.2660 o          1 VJ9      -0.476000
      4 C1          -5.0820    17.1460   -33.6690 c3         1 VJ9       0.170600
      5 C5          -1.9880    12.4430   -33.8930 ca         1 VJ9      -0.185000
      6 C6          -0.8500    12.3570   -34.7060 ca         1 VJ9       0.268000
      7 C4          -2.7460    13.6250   -33.8480 ca         1 VJ9       0.011000
      8 C3          -2.3680    14.7390   -34.6290 ca         1 VJ9      -0.166600
      9 O3           1.7270    12.7440   -35.9590 o          1 VJ9      -0.379500
     10 C2          -3.1660    16.0200   -34.6020 c          1 VJ9       0.609700
     11 F           -0.1710    11.1880   -34.7400 f          1 VJ9      -0.130000
     12 N            0.7510    13.3920   -36.3560 no         1 VJ9       0.685200
     13 O2           0.7670    14.0990   -37.3710 o          1 VJ9      -0.379500
     14 O           -4.2540    15.9750   -33.7680 os         1 VJ9      -0.455100
     15 C           -6.2130    16.8260   -32.6800 c3         1 VJ9      -0.098100
     16 H1          -0.9220    15.5070   -36.0500 ha         1 VJ9       0.175000
     17 H2          -4.5060    18.0050   -33.3010 h1         1 VJ9       0.054700
     18 H3          -5.5120    17.4070   -34.6460 h1         1 VJ9       0.054700
     19 H4          -2.2880    11.5850   -33.2970 ha         1 VJ9       0.150000
     20 H5          -3.6250    13.6620   -33.2070 ha         1 VJ9       0.147000
     21 H6          -6.8770    17.6910   -32.5690 hc         1 VJ9       0.050367
     22 H7          -6.8100    15.9780   -33.0370 hc         1 VJ9       0.050367
     23 H8          -5.8050    16.5760   -31.6940 hc         1 VJ9       0.050367
@<TRIPOS>BOND
     1     1     2 ar  
     2     1     6 ar  
     3     1    12 1   
     4     2     8 ar  
     5     2    16 1   
     6     3    10 2   
     7     4    14 1   
     8     4    15 1   
     9     4    17 1   
    10     4    18 1   
    11     5     6 ar  
    12     5     7 ar  
    13     5    19 1   
    14     6    11 1   
    15     7     8 ar  
    16     7    20 1   
    17     8    10 1   
    18     9    12 1   
    19    10    14 1   
    20    12    13 1   
    21    15    21 1   
    22    15    22 1   
    23    15    23 1   
@<TRIPOS>SUBSTRUCTURE
     1 VJ9         1 TEMP              0 ****  ****    0 ROOT
