@<TRIPOS>MOLECULE
VJ9
   23    23     1     0     0
SMALL
abcg2


@<TRIPOS>ATOM
      1 C7          -0.4890    13.4990   -35.4450 ca         1 VJ9      -0.232200
      2 C8          -1.2630    14.6500   -35.4210 ca         1 VJ9       0.025000
      3 O1          -2.9220    16.9330   -35.3240 o          1 VJ9      -0.476000
      4 C1          -5.0700    17.1050   -33.7100 c3         1 VJ9       0.170600
      5 C5          -2.0240    12.4320   -33.9200 ca         1 VJ9      -0.185000
      6 C6          -0.8770    12.3870   -34.6930 ca         1 VJ9       0.268000
      7 C4          -2.7810    13.5900   -33.8840 ca         1 VJ9       0.011000
      8 C3          -2.4060    14.7070   -34.6360 ca         1 VJ9      -0.166600
      9 O3           1.6070    12.7000   -35.9940 o          1 VJ9      -0.379500
     10 C2          -3.1930    15.9730   -34.6330 c          1 VJ9       0.609700
     11 F           -0.1830    11.2490   -34.7190 f          1 VJ9      -0.130000
     12 N            0.7240    13.5020   -36.2610 no         1 VJ9       0.685200
     13 O2           0.7970    14.3250   -37.1640 o          1 VJ9      -0.379500
     14 O           -4.2210    15.9270   -33.7890 os         1 VJ9      -0.455100
     15 C           -6.1190    16.8390   -32.6580 c3         1 VJ9      -0.098100
     16 H1          -0.9620    15.5050   -36.0070 ha         1 VJ9       0.175000
     17 H2          -4.4440    17.9610   -33.4580 h1         1 VJ9       0.054700
     18 H3          -5.5090    17.2730   -34.6940 h1         1 VJ9       0.054700
     19 H4          -2.3080    11.5520   -33.3580 ha         1 VJ9       0.150000
     20 H5          -3.6720    13.6240   -33.2740 ha         1 VJ9       0.147000
     21 H6          -6.7760    17.7070   -32.5790 hc         1 VJ9       0.050367
     22 H7          -6.7260    15.9710   -32.9200 hc         1 VJ9       0.050367
     23 H8          -5.6590    16.6660   -31.6830 hc         1 VJ9       0.050367
@<TRIPOS>BOND
     1     1     2 ar  
     2     1     6 ar  
     3     1    12 1   
     4     2     8 ar  
     5     2    16 1   
     6     3    10 2   
     7     4    14 1   
     8     4    15 1   
     9     4    17 1   
    10     4    18 1   
    11     5     6 ar  
    12     5     7 ar  
    13     5    19 1   
    14     6    11 1   
    15     7     8 ar  
    16     7    20 1   
    17     8    10 1   
    18     9    12 1   
    19    10    14 1   
    20    12    13 1   
    21    15    21 1   
    22    15    22 1   
    23    15    23 1   
@<TRIPOS>SUBSTRUCTURE
     1 VJ9         1 TEMP              0 ****  ****    0 ROOT
