@<TRIPOS>MOLECULE
VJA
   76    77     1     0     0
SMALL
bcc


@<TRIPOS>ATOM
      1 C1         -17.9190    10.3290    -3.3570 ca         1 VJA      -0.118000
      2 C10        -12.9410    -1.8990     2.3500 c3         1 VJA       0.122400
      3 C11        -14.6820     5.0610    -0.1880 c3         1 VJA       0.057700
      4 C12        -14.9110     3.7700     0.5980 c          1 VJA       0.647100
      5 C14        -15.5350     1.4170     0.4810 c3         1 VJA       0.032700
      6 C15        -14.1700     0.7930     0.8030 c          1 VJA       0.658100
      7 C17        -12.9410    -0.4060     2.6480 c3         1 VJA       0.128700
      8 C19        -11.5860     0.2560     2.3820 c3         1 VJA      -0.057400
      9 C2         -18.8850     9.3330    -3.3560 ca         1 VJA      -0.133500
     10 C20        -11.5130     1.7440     2.6990 c5         1 VJA      -0.152700
     11 C21        -10.2720     2.4400     2.1410 c5         1 VJA      -0.089400
     12 C22        -10.0990     3.6500     3.0550 c5         1 VJA       0.100000
     13 C24        -11.4560     2.0950     4.1780 c          1 VJA       0.707500
     14 C3         -19.0710     8.5450    -2.2270 ca         1 VJA      -0.102500
     15 C30        -13.1980     5.4540    -0.1650 c3         1 VJA      -0.068700
     16 C31        -12.9690     6.7520    -0.9310 c3         1 VJA      -0.093600
     17 C32        -12.3370     4.3400    -0.7510 c3         1 VJA      -0.093600
     18 C34        -16.2920     0.5010    -0.4790 c3         1 VJA      -0.084400
     19 C35        -17.7030     0.9660    -0.8510 c3         1 VJA      -0.062700
     20 C36        -18.6170     1.0690     0.3650 c3         1 VJA      -0.089100
     21 C37        -18.2900     0.0110    -1.8850 c3         1 VJA      -0.089100
     22 C4         -18.3040     8.7500    -1.0860 ca         1 VJA      -0.126300
     23 C5         -17.3400     9.7550    -1.0920 ca         1 VJA      -0.102500
     24 C6         -17.1450    10.5370    -2.2210 ca         1 VJA      -0.133500
     25 C7         -18.5170     7.9110     0.1440 c3         1 VJA       0.207700
     26 C9         -16.7360     6.3840    -0.0790 c          1 VJA       0.758100
     27 N10        -15.4990     6.1090     0.3760 ns         1 VJA      -0.559900
     28 N13        -15.3450     2.7200    -0.1120 ns         1 VJA      -0.543900
     29 N16        -14.0750     0.2760     2.0360 ns         1 VJA      -0.558900
     30 N23        -10.6400     3.1580     4.3040 ns         1 VJA      -0.583900
     31 O26        -12.0460     1.5380     5.0910 o          1 VJA      -0.643500
     32 O29        -17.2820     5.8260    -1.0070 o          1 VJA      -0.590000
     33 O33        -14.7130     3.7240     1.8040 o          1 VJA      -0.615100
     34 O38        -13.2870     0.7920    -0.0390 o          1 VJA      -0.598100
     35 O8         -17.2930     7.3710     0.6370 os         1 VJA      -0.431900
     36 H1         -17.7670    10.9400    -4.2370 ha         1 VJA       0.130000
     37 H2         -13.9100    -2.3100     2.6600 h1         1 VJA       0.020700
     38 H3         -12.1790    -2.3630     2.9910 h1         1 VJA       0.020700
     39 H4         -14.9810     4.9280    -1.2310 h1         1 VJA       0.083700
     40 H5         -16.1150     1.5370     1.3990 h1         1 VJA       0.073700
     41 H6         -13.1270    -0.3350     3.7210 h1         1 VJA       0.071700
     42 H7         -10.8450    -0.2770     2.9860 hc         1 VJA       0.063700
     43 H8         -11.2900     0.1120     1.3450 hc         1 VJA       0.063700
     44 H9         -19.4890     9.1610    -4.2370 ha         1 VJA       0.131000
     45 H10        -12.4010     2.2560     2.3080 hc         1 VJA       0.095700
     46 H11        -10.3740     2.7170     1.0930 hc         1 VJA       0.058200
     47 H12         -9.4040     1.7810     2.2310 hc         1 VJA       0.058200
     48 H13         -9.0580     3.9520     3.1690 h1         1 VJA       0.042700
     49 H14        -10.6630     4.5150     2.6900 h1         1 VJA       0.042700
     50 H15        -19.8180     7.7600    -2.2370 ha         1 VJA       0.134500
     51 H16        -12.9040     5.6040     0.8810 hc         1 VJA       0.061700
     52 H17        -13.5280     7.5880    -0.5130 hc         1 VJA       0.041367
     53 H18        -11.9120     7.0200    -0.9120 hc         1 VJA       0.041367
     54 H19        -13.2630     6.6400    -1.9780 hc         1 VJA       0.041367
     55 H20        -12.4200     3.4020    -0.2010 hc         1 VJA       0.041367
     56 H21        -12.6120     4.1430    -1.7890 hc         1 VJA       0.041367
     57 H22        -11.2870     4.6320    -0.7370 hc         1 VJA       0.041367
     58 H23        -16.3570    -0.4890    -0.0180 hc         1 VJA       0.058200
     59 H24        -15.6980     0.3810    -1.3900 hc         1 VJA       0.058200
     60 H25        -17.6370     1.9580    -1.3120 hc         1 VJA       0.055700
     61 H26        -18.2730     1.8140     1.0830 hc         1 VJA       0.034367
     62 H27        -19.6270     1.3520     0.0640 hc         1 VJA       0.034367
     63 H28        -18.6830     0.1100     0.8850 hc         1 VJA       0.034367
     64 H29        -19.2810     0.3380    -2.2040 hc         1 VJA       0.034367
     65 H30        -17.6590    -0.0540    -2.7730 hc         1 VJA       0.034367
     66 H31        -18.3900    -0.9960    -1.4740 hc         1 VJA       0.034367
     67 H32        -16.7340     9.9330    -0.2100 ha         1 VJA       0.134500
     68 H33        -16.3910    11.3140    -2.2130 ha         1 VJA       0.131000
     69 H34        -18.8920     8.5230     0.9650 h1         1 VJA       0.067200
     70 H35        -19.2490     7.1230    -0.0440 h1         1 VJA       0.067200
     71 H36        -15.1590     6.5970     1.1900 hn         1 VJA       0.337500
     72 H37        -15.4190     2.8070    -1.1140 hn         1 VJA       0.330500
     73 H38        -14.8800     0.3820     2.6310 hn         1 VJA       0.314500
     74 H39        -10.5380     3.6520     5.1770 hn         1 VJA       0.324500
     75 H40        -12.7210    -3.0870     0.8410 ho         1 VJA       0.399000
     76 O11        -12.6930    -2.1380     0.9870 oh         1 VJA      -0.580800
@<TRIPOS>BOND
     1     1     9 ar  
     2     1    24 ar  
     3     1    36 1   
     4     2     7 1   
     5     2    37 1   
     6     2    38 1   
     7     2    76 1   
     8     3     4 1   
     9     3    15 1   
    10     3    27 1   
    11     3    39 1   
    12     4    28 1   
    13     4    33 2   
    14     5     6 1   
    15     5    18 1   
    16     5    28 1   
    17     5    40 1   
    18     6    29 1   
    19     6    34 2   
    20     7     8 1   
    21     7    29 1   
    22     7    41 1   
    23     8    10 1   
    24     8    42 1   
    25     8    43 1   
    26     9    14 ar  
    27     9    44 1   
    28    10    11 1   
    29    10    13 1   
    30    10    45 1   
    31    11    12 1   
    32    11    46 1   
    33    11    47 1   
    34    12    30 1   
    35    12    48 1   
    36    12    49 1   
    37    13    30 1   
    38    13    31 2   
    39    14    22 ar  
    40    14    50 1   
    41    15    16 1   
    42    15    17 1   
    43    15    51 1   
    44    16    52 1   
    45    16    53 1   
    46    16    54 1   
    47    17    55 1   
    48    17    56 1   
    49    17    57 1   
    50    18    19 1   
    51    18    58 1   
    52    18    59 1   
    53    19    20 1   
    54    19    21 1   
    55    19    60 1   
    56    20    61 1   
    57    20    62 1   
    58    20    63 1   
    59    21    64 1   
    60    21    65 1   
    61    21    66 1   
    62    22    23 ar  
    63    22    25 1   
    64    23    24 ar  
    65    23    67 1   
    66    24    68 1   
    67    25    35 1   
    68    25    69 1   
    69    25    70 1   
    70    26    27 1   
    71    26    32 2   
    72    26    35 1   
    73    27    71 1   
    74    28    72 1   
    75    29    73 1   
    76    30    74 1   
    77    75    76 1   
@<TRIPOS>SUBSTRUCTURE
     1 VJA         1 TEMP              0 ****  ****    0 ROOT
