@<TRIPOS>MOLECULE
VJA
   76    77     1     0     0
SMALL
No Charge or Current Charge


@<TRIPOS>ATOM
      1 C1         -16.6640    11.3930    -3.1010 ca         1 VJA      -0.100000
      2 C10        -12.2900    -2.2310     1.3580 c3         1 VJA       0.145600
      3 C11        -15.6570     4.9960    -0.4750 c3         1 VJA       0.057700
      4 C12        -15.8470     3.8120     0.5190 c          1 VJA       0.580100
      5 C14        -15.2800     1.3620     0.9070 c3         1 VJA       0.032700
      6 C15        -13.8600     0.7280     0.8520 c          1 VJA       0.591100
      7 C17        -12.3300    -0.8820     2.1400 c3         1 VJA       0.128700
      8 C19        -11.0250    -0.0430     1.9960 c3         1 VJA      -0.057400
      9 C2         -17.0840    10.4660    -4.0690 ca         1 VJA      -0.115500
     10 C20        -10.9960     1.3110     2.7650 c5         1 VJA      -0.152700
     11 C21         -9.7290     2.1680     2.5020 c5         1 VJA      -0.089400
     12 C22         -9.7860     3.1620     3.6950 c5         1 VJA       0.100000
     13 C24        -10.9970     1.2000     4.2960 c          1 VJA       0.565000
     14 C3         -17.9050     9.3850    -3.7010 ca         1 VJA      -0.084500
     15 C30        -14.3450     5.8050    -0.1980 c3         1 VJA      -0.068700
     16 C31        -14.1610     7.0030    -1.1650 c3         1 VJA      -0.093600
     17 C32        -13.0730     4.9190    -0.2050 c3         1 VJA      -0.093600
     18 C34        -16.3500     0.3660     0.3810 c3         1 VJA      -0.084400
     19 C35        -17.8320     0.8010     0.5630 c3         1 VJA      -0.062700
     20 C36        -18.2470     0.8900     2.0510 c3         1 VJA      -0.089100
     21 C37        -18.7820    -0.1430    -0.2090 c3         1 VJA      -0.089100
     22 C4         -18.3110     9.2250    -2.3600 ca         1 VJA      -0.126300
     23 C5         -17.8870    10.1600    -1.3940 ca         1 VJA      -0.084500
     24 C6         -17.0660    11.2390    -1.7630 ca         1 VJA      -0.115500
     25 C7         -19.1980     8.0500    -1.9530 c3         1 VJA       0.230900
     26 C9         -17.4550     6.4680    -1.4660 c          1 VJA       0.642100
     27 N10        -16.8440     5.8750    -0.3990 ns         1 VJA      -0.492900
     28 N13        -15.2880     2.6150     0.1190 ns         1 VJA      -0.476900
     29 N16        -13.5790    -0.1260     1.9050 ns         1 VJA      -0.491900
     30 N23        -10.3030     2.2890     4.7470 ns         1 VJA      -0.516900
     31 O26        -11.2850     0.2580     5.0160 o          1 VJA      -0.568000
     32 O29        -17.1370     6.3100    -2.6340 o          1 VJA      -0.541000
     33 O33        -16.4520     3.9230     1.5790 o          1 VJA      -0.615100
     34 O38        -13.0590     0.9950    -0.0340 o          1 VJA      -0.598100
     35 O8         -18.4880     7.2280    -1.0090 os         1 VJA      -0.455100
     36 H1         -16.0280    12.2290    -3.3860 ha         1 VJA       0.112000
     37 H2         -13.1980    -2.8000     1.5950 h1         1 VJA       0.020700
     38 H3         -11.4360    -2.8190     1.7200 h1         1 VJA       0.020700
     39 H4         -15.6030     4.5660    -1.4830 h1         1 VJA       0.083700
     40 H5         -15.4770     1.5960     1.9610 h1         1 VJA       0.073700
     41 H6         -12.3760    -1.1790     3.1950 h1         1 VJA       0.071700
     42 H7         -10.1830    -0.6640     2.3290 hc         1 VJA       0.063700
     43 H8         -10.8380     0.1460     0.9320 hc         1 VJA       0.063700
     44 H9         -16.7730    10.5830    -5.1050 ha         1 VJA       0.113000
     45 H10        -11.8560     1.9270     2.4820 hc         1 VJA       0.095700
     46 H11         -9.7420     2.6730     1.5290 hc         1 VJA       0.058200
     47 H12         -8.8180     1.5600     2.5470 hc         1 VJA       0.058200
     48 H13         -8.7970     3.5780     3.9320 h1         1 VJA       0.042700
     49 H14        -10.4750     3.9940     3.4940 h1         1 VJA       0.042700
     50 H15        -18.2210     8.6700    -4.4580 ha         1 VJA       0.116500
     51 H16        -14.4290     6.2250     0.8130 hc         1 VJA       0.061700
     52 H17        -14.9710     7.7340    -1.0550 hc         1 VJA       0.041367
     53 H18        -13.2210     7.5280    -0.9610 hc         1 VJA       0.041367
     54 H19        -14.1420     6.6630    -2.2080 hc         1 VJA       0.041367
     55 H20        -13.0960     4.1780     0.6030 hc         1 VJA       0.041367
     56 H21        -12.9680     4.3900    -1.1600 hc         1 VJA       0.041367
     57 H22        -12.1740     5.5290    -0.0550 hc         1 VJA       0.041367
     58 H23        -16.2120    -0.6030     0.8770 hc         1 VJA       0.058200
     59 H24        -16.1560     0.1890    -0.6850 hc         1 VJA       0.058200
     60 H25        -17.9520     1.8000     0.1240 hc         1 VJA       0.055700
     61 H26        -17.6460     1.6280     2.5920 hc         1 VJA       0.034367
     62 H27        -19.2980     1.1910     2.1400 hc         1 VJA       0.034367
     63 H28        -18.1280    -0.0800     2.5480 hc         1 VJA       0.034367
     64 H29        -19.8220     0.1920    -0.1150 hc         1 VJA       0.034367
     65 H30        -18.5300    -0.1610    -1.2760 hc         1 VJA       0.034367
     66 H31        -18.7150    -1.1670     0.1780 hc         1 VJA       0.034367
     67 H32        -18.1910    10.0460    -0.3560 ha         1 VJA       0.116500
     68 H33        -16.7400    11.9560    -1.0120 ha         1 VJA       0.113000
     69 H34        -20.1120     8.4460    -1.4910 h1         1 VJA       0.067200
     70 H35        -19.5030     7.4690    -2.8340 h1         1 VJA       0.067200
     71 H36        -17.2510     6.0690     0.5080 hn         1 VJA       0.337500
     72 H37        -14.7770     2.6210    -0.7580 hn         1 VJA       0.330500
     73 H38        -14.3280    -0.2570     2.5750 hn         1 VJA       0.314500
     74 H39        -10.0920     2.3590     5.7360 hn         1 VJA       0.324500
     75 H40        -12.1840    -2.9420    -0.4690 ho         1 VJA       0.438000
     76 O11        -12.1850    -2.0480    -0.0620 oh         1 VJA      -0.643000
@<TRIPOS>BOND
     1     1     9 ar  
     2     1    24 ar  
     3     1    36 1   
     4     2     7 1   
     5     2    37 1   
     6     2    38 1   
     7     2    76 1   
     8     3     4 1   
     9     3    15 1   
    10     3    27 1   
    11     3    39 1   
    12     4    28 1   
    13     4    33 2   
    14     5     6 1   
    15     5    18 1   
    16     5    28 1   
    17     5    40 1   
    18     6    29 1   
    19     6    34 2   
    20     7     8 1   
    21     7    29 1   
    22     7    41 1   
    23     8    10 1   
    24     8    42 1   
    25     8    43 1   
    26     9    14 ar  
    27     9    44 1   
    28    10    11 1   
    29    10    13 1   
    30    10    45 1   
    31    11    12 1   
    32    11    46 1   
    33    11    47 1   
    34    12    30 1   
    35    12    48 1   
    36    12    49 1   
    37    13    30 1   
    38    13    31 2   
    39    14    22 ar  
    40    14    50 1   
    41    15    16 1   
    42    15    17 1   
    43    15    51 1   
    44    16    52 1   
    45    16    53 1   
    46    16    54 1   
    47    17    55 1   
    48    17    56 1   
    49    17    57 1   
    50    18    19 1   
    51    18    58 1   
    52    18    59 1   
    53    19    20 1   
    54    19    21 1   
    55    19    60 1   
    56    20    61 1   
    57    20    62 1   
    58    20    63 1   
    59    21    64 1   
    60    21    65 1   
    61    21    66 1   
    62    22    23 ar  
    63    22    25 1   
    64    23    24 ar  
    65    23    67 1   
    66    24    68 1   
    67    25    35 1   
    68    25    69 1   
    69    25    70 1   
    70    26    27 1   
    71    26    32 2   
    72    26    35 1   
    73    27    71 1   
    74    28    72 1   
    75    29    73 1   
    76    30    74 1   
    77    75    76 1   
@<TRIPOS>SUBSTRUCTURE
     1 VJA         1 TEMP              0 ****  ****    0 ROOT
