@<TRIPOS>MOLECULE
VJE
   45    47     1     0     0
SMALL
bcc


@<TRIPOS>ATOM
      1 C15        -50.4280     7.5020    11.8290 cg         1 VJE       0.231800
      2 C26        -46.1730     8.4190    16.0170 ca         1 VJE      -0.118000
      3 C25        -45.4600     7.3920    16.6190 ca         1 VJE      -0.123000
      4 C11        -51.7370     9.1680    13.0410 ca         1 VJE      -0.094500
      5 C13        -49.8630     8.0980    14.1290 ca         1 VJE      -0.094500
      6 C10        -51.9600     9.9160    14.1850 ca         1 VJE      -0.116000
      7 C14        -50.1030     8.8470    15.2650 ca         1 VJE      -0.116000
      8 C27        -46.6230     9.4940    16.7660 ca         1 VJE      -0.133000
      9 C24        -45.1970     7.4510    17.9790 ca         1 VJE      -0.107000
     10 C12        -50.6810     8.2610    13.0100 ca         1 VJE      -0.017000
     11 C9         -51.1470     9.7720    15.3050 ca         1 VJE      -0.097300
     12 C21        -46.3850     9.5640    18.1380 ca         1 VJE       0.033900
     13 C22        -45.6560     8.5260    18.7210 ca         1 VJE       0.038400
     14 C2         -48.7160    11.5410    13.0910 cc         1 VJE       0.476700
     15 C5         -49.7110    12.3910    14.7480 cc         1 VJE       0.425700
     16 C17        -49.3650    10.9250    17.8560 c          1 VJE       0.676100
     17 C8         -51.3870    10.6130    16.5370 c3         1 VJE       0.137300
     18 C6         -50.0360    12.6370    16.1790 c3         1 VJE       0.085700
     19 C19        -48.1080    11.7460    18.1370 c3         1 VJE      -0.128300
     20 N16        -50.2200     6.8920    10.8740 n1         1 VJE      -0.359800
     21 N3         -49.6950    12.2320    12.6250 nd         1 VJE      -0.357000
     22 N4         -50.3430    12.7810    13.7030 nd         1 VJE      -0.347000
     23 N7         -50.2190    11.4010    16.9120 n          1 VJE      -0.483800
     24 O18        -49.5870     9.8960    18.4620 o          1 VJE      -0.552100
     25 O28        -48.6640    11.6150    14.4330 os         1 VJE      -0.373800
     26 S20        -46.9250    10.8810    19.1760 ss         1 VJE      -0.135000
     27 CL1        -45.3130     8.5810    20.4190 cl         1 VJE      -0.091400
     28 H1         -46.3820     8.3930    14.9560 ha         1 VJE       0.130000
     29 H2         -45.1070     6.5500    16.0390 ha         1 VJE       0.139000
     30 H3         -52.3710     9.2980    12.1740 ha         1 VJE       0.146500
     31 H4         -49.0420     7.3940    14.1080 ha         1 VJE       0.146500
     32 H5         -52.7710    10.6330    14.1960 ha         1 VJE       0.149000
     33 H6         -49.4630     8.7040    16.1250 ha         1 VJE       0.149000
     34 H7         -47.1610    10.2810    16.2580 ha         1 VJE       0.134000
     35 H8         -44.6350     6.6630    18.4650 ha         1 VJE       0.149000
     36 H9         -47.9350    10.7360    11.3110 hc         1 VJE       0.072700
     37 H10        -46.7100    11.1290    12.5250 hc         1 VJE       0.072700
     38 H11        -47.7240     9.7000    12.7310 hc         1 VJE       0.072700
     39 H12        -52.2170    11.2990    16.3630 h1         1 VJE       0.076200
     40 H13        -51.6690     9.9780    17.3750 h1         1 VJE       0.076200
     41 H14        -49.2650    13.2510    16.6420 h1         1 VJE       0.082700
     42 H15        -50.9550    13.2250    16.2110 h1         1 VJE       0.082700
     43 H16        -47.6200    12.1080    17.2330 h1         1 VJE       0.092700
     44 H17        -48.3780    12.6370    18.7120 h1         1 VJE       0.092700
     45 C1         -47.7140    10.7310    12.3740 c3         1 VJE      -0.124400
@<TRIPOS>BOND
     1     1    10 1   
     2     1    20 3   
     3     2     3 ar  
     4     2     8 ar  
     5     2    28 1   
     6     3     9 ar  
     7     3    29 1   
     8     4     6 ar  
     9     4    10 ar  
    10     4    30 1   
    11     5     7 ar  
    12     5    10 ar  
    13     5    31 1   
    14     6    11 ar  
    15     6    32 1   
    16     7    11 ar  
    17     7    33 1   
    18     8    12 ar  
    19     8    34 1   
    20     9    13 ar  
    21     9    35 1   
    22    11    17 1   
    23    12    13 ar  
    24    12    26 1   
    25    13    27 1   
    26    14    21 2   
    27    14    25 1   
    28    14    45 1   
    29    15    18 1   
    30    15    22 2   
    31    15    25 1   
    32    16    19 1   
    33    16    23 1   
    34    16    24 2   
    35    17    23 1   
    36    17    39 1   
    37    17    40 1   
    38    18    23 1   
    39    18    41 1   
    40    18    42 1   
    41    19    26 1   
    42    19    43 1   
    43    19    44 1   
    44    21    22 1   
    45    36    45 1   
    46    37    45 1   
    47    38    45 1   
@<TRIPOS>SUBSTRUCTURE
     1 VJE         1 TEMP              0 ****  ****    0 ROOT
