@<TRIPOS>MOLECULE
VJE
   45    47     1     0     0
SMALL
No Charge or Current Charge


@<TRIPOS>ATOM
      1 C15        -49.9120     7.1460    12.2480 cg         1 VJE       0.321000
      2 C26        -46.2330     8.7450    15.4630 ca         1 VJE      -0.100000
      3 C25        -46.1500     7.4580    16.0190 ca         1 VJE      -0.105000
      4 C11        -51.3090     8.9060    13.2660 ca         1 VJE      -0.076500
      5 C13        -49.6020     7.8030    14.6040 ca         1 VJE      -0.076500
      6 C10        -51.6600     9.7020    14.3700 ca         1 VJE      -0.098000
      7 C14        -49.9510     8.6020    15.7060 ca         1 VJE      -0.098000
      8 C27        -46.3440     9.8690    16.2990 ca         1 VJE      -0.115000
      9 C24        -46.1720     7.2960    17.4140 ca         1 VJE      -0.089000
     10 C12        -50.2770     7.9540    13.3790 ca         1 VJE      -0.017000
     11 C9         -50.9810     9.5570    15.5960 ca         1 VJE      -0.097300
     12 C21        -46.3690     9.7130    17.6990 ca         1 VJE      -0.093000
     13 C22        -46.2780     8.4180    18.2540 ca         1 VJE       0.130000
     14 C2         -48.6700    11.6610    13.2120 cc         1 VJE       0.432300
     15 C5         -49.7690    12.4810    14.8050 cc         1 VJE       0.381300
     16 C17        -49.2490    11.1750    18.0220 c          1 VJE       0.609100
     17 C8         -51.3170    10.4610    16.7760 c3         1 VJE       0.137300
     18 C6         -50.2490    12.6920    16.2230 c3         1 VJE       0.085700
     19 C19        -47.9810    12.0480    18.0540 c3         1 VJE      -0.080400
     20 N16        -49.6070     6.4960    11.3270 n1         1 VJE      -0.449000
     21 N3         -49.5900    12.4340    12.6600 nd         1 VJE      -0.357000
     22 N4         -50.3100    12.9660    13.6990 nd         1 VJE      -0.347000
     23 N7         -50.2360    11.4410    17.0410 n          1 VJE      -0.416800
     24 O18        -49.3920    10.2470    18.8080 o          1 VJE      -0.552100
     25 O28        -48.7150    11.6590    14.5650 os         1 VJE      -0.285000
     26 S20        -46.5220    11.1520    18.7590 ss         1 VJE      -0.056000
     27 Cl1        -46.3040     8.1750    20.0000 cl         1 VJE      -0.183000
     28 H1         -46.2080     8.8700    14.3830 ha         1 VJE       0.112000
     29 H2         -46.0640     6.5890    15.3710 ha         1 VJE       0.121000
     30 H3         -51.8370     9.0340    12.3230 ha         1 VJE       0.128500
     31 H4         -48.8030     7.0720    14.7030 ha         1 VJE       0.128500
     32 H5         -52.4500    10.4420    14.2660 ha         1 VJE       0.131000
     33 H6         -49.4110     8.4840    16.6430 ha         1 VJE       0.131000
     34 H7         -46.3960    10.8610    15.8560 ha         1 VJE       0.116000
     35 H8         -46.1060     6.3010    17.8470 ha         1 VJE       0.131000
     36 H9         -47.6340    11.0390    11.4360 hc         1 VJE       0.072700
     37 H10        -46.6460    11.0230    12.9100 hc         1 VJE       0.072700
     38 H11        -47.8660     9.7600    12.6430 hc         1 VJE       0.072700
     39 H12        -52.2510    11.0010    16.5730 h1         1 VJE       0.076200
     40 H13        -51.5040     9.8420    17.6630 h1         1 VJE       0.076200
     41 H14        -49.6490    13.4800    16.6920 h1         1 VJE       0.082700
     42 H15        -51.2780    13.0720    16.1810 h1         1 VJE       0.082700
     43 H16        -47.7310    12.3570    17.0340 h1         1 VJE       0.092700
     44 H17        -48.1930    12.9420    18.6520 h1         1 VJE       0.092700
     45 C1         -47.6470    10.8250    12.5100 c3         1 VJE      -0.124400
@<TRIPOS>BOND
     1     1    10 1   
     2     1    20 3   
     3     2     3 ar  
     4     2     8 ar  
     5     2    28 1   
     6     3     9 ar  
     7     3    29 1   
     8     4     6 ar  
     9     4    10 ar  
    10     4    30 1   
    11     5     7 ar  
    12     5    10 ar  
    13     5    31 1   
    14     6    11 ar  
    15     6    32 1   
    16     7    11 ar  
    17     7    33 1   
    18     8    12 ar  
    19     8    34 1   
    20     9    13 ar  
    21     9    35 1   
    22    11    17 1   
    23    12    13 ar  
    24    12    26 1   
    25    13    27 1   
    26    14    21 2   
    27    14    25 1   
    28    14    45 1   
    29    15    18 1   
    30    15    22 2   
    31    15    25 1   
    32    16    19 1   
    33    16    23 1   
    34    16    24 2   
    35    17    23 1   
    36    17    39 1   
    37    17    40 1   
    38    18    23 1   
    39    18    41 1   
    40    18    42 1   
    41    19    26 1   
    42    19    43 1   
    43    19    44 1   
    44    21    22 1   
    45    36    45 1   
    46    37    45 1   
    47    38    45 1   
@<TRIPOS>SUBSTRUCTURE
     1 VJE         1 TEMP              0 ****  ****    0 ROOT
