@<TRIPOS>MOLECULE
VJF
   39    40     1     0     0
SMALL
No Charge or Current Charge


@<TRIPOS>ATOM
      1 C10         22.6140   -24.7840     6.0840 cc         1 VJF       0.654100
      2 C13         25.5310   -25.1480     4.4950 c3         1 VJF      -0.134400
      3 C17         29.7470   -23.7220     4.7560 ca         1 VJF      -0.263500
      4 C20         30.1030   -20.9540     4.3750 ca         1 VJF      -0.059000
      5 C21         30.1300   -21.8250     3.2730 ca         1 VJF      -0.133000
      6 C22         29.9520   -23.2070     3.4600 ca         1 VJF      -0.007500
      7 C03         20.4550   -25.2220     6.8570 cc         1 VJF       0.153800
      8 C04         19.3350   -25.2150     7.8660 c3         1 VJF      -0.177200
      9 C05         17.9680   -25.4920     7.2370 c          1 VJF       0.734000
     10 C08         20.4210   -25.7510     5.5820 cd         1 VJF      -0.231400
     11 C12         24.4960   -24.1300     4.9620 c          1 VJF       0.696500
     12 C14         26.9240   -24.7220     4.9730 c3         1 VJF       0.214800
     13 C18         29.7190   -22.8460     5.8620 ca         1 VJF      -0.007500
     14 C19         29.8980   -21.4650     5.6680 ca         1 VJF      -0.133000
     15 N02         21.7190   -24.6860     7.1500 na         1 VJF      -0.385900
     16 N11         23.8590   -24.4300     6.1710 nf         1 VJF      -0.797100
     17 N15         27.9260   -25.6900     4.4920 n7         1 VJF      -0.891300
     18 O01         22.0470   -24.1070     8.4050 oh         1 VJF      -0.348300
     19 O06         17.3480   -24.5470     6.7730 o          1 VJF      -0.717500
     20 O07         17.6250   -26.6570     7.1020 o          1 VJF      -0.717500
     21 O23         30.3050   -26.2170     3.9990 o          1 VJF      -0.553500
     22 O24         29.5140   -25.8290     6.4120 o          1 VJF      -0.553500
     23 O25         24.2400   -23.1000     4.3590 o          1 VJF      -0.631100
     24 S09         21.9220   -25.5940     4.6970 ss         1 VJF      -0.030800
     25 S16         29.5060   -25.4910     4.9880 sy         1 VJF       1.142600
     26 H1          25.3110   -26.1290     4.9330 hc         1 VJF       0.062200
     27 H2          25.5270   -25.1970     3.4000 hc         1 VJF       0.062200
     28 H3          30.2400   -19.8840     4.2270 ha         1 VJF       0.112000
     29 H4          30.2870   -21.4300     2.2720 ha         1 VJF       0.116500
     30 H5          29.9680   -23.8730     2.5980 ha         1 VJF       0.135500
     31 H6          19.5730   -26.0060     8.5870 hc         1 VJF       0.050700
     32 H7          19.3230   -24.2130     8.3100 hc         1 VJF       0.050700
     33 H8          19.5780   -26.2400     5.1050 h4         1 VJF       0.277000
     34 H9          27.1310   -23.7140     4.5840 h1         1 VJF       0.066700
     35 H10         26.9250   -24.6620     6.0720 h1         1 VJF       0.066700
     36 H11         29.5590   -23.2270     6.8700 ha         1 VJF       0.135500
     37 H12         29.8760   -20.7910     6.5200 ha         1 VJF       0.116500
     38 H14         27.7250   -26.6050     4.8900 hn         1 VJF       0.479000
     39 H15         22.8330   -24.5900     8.7490 ho         1 VJF       0.448000
@<TRIPOS>BOND
     1     1    15 1   
     2     1    16 2   
     3     1    24 1   
     4     2    11 1   
     5     2    12 1   
     6     2    26 1   
     7     2    27 1   
     8     3     6 ar  
     9     3    13 ar  
    10     3    25 1   
    11     4     5 ar  
    12     4    14 ar  
    13     4    28 1   
    14     5     6 ar  
    15     5    29 1   
    16     6    30 1   
    17     7     8 1   
    18     7    10 2   
    19     7    15 1   
    20     8     9 1   
    21     8    31 1   
    22     8    32 1   
    23     9    19 1   
    24     9    20 1   
    25    10    24 1   
    26    10    33 1   
    27    11    16 1   
    28    11    23 2   
    29    12    17 1   
    30    12    34 1   
    31    12    35 1   
    32    13    14 ar  
    33    13    36 1   
    34    14    37 1   
    35    15    18 1   
    36    17    25 1   
    37    17    38 1   
    38    18    39 1   
    39    21    25 2   
    40    22    25 2   
@<TRIPOS>SUBSTRUCTURE
     1 VJF         1 TEMP              0 ****  ****    0 ROOT
