@<TRIPOS>MOLECULE
VJF
   39    40     1     0     0
SMALL
abcg2


@<TRIPOS>ATOM
      1 C10         22.8030   -25.2410     5.3230 cc         1 VJF       0.654100
      2 C13         25.9660   -25.8410     3.6550 c3         1 VJF      -0.134400
      3 C17         29.2020   -23.4140     5.2520 ca         1 VJF      -0.263500
      4 C20         28.9980   -20.7070     4.7730 ca         1 VJF      -0.059000
      5 C21         29.3850   -21.5640     3.7480 ca         1 VJF      -0.133000
      6 C22         29.4900   -22.9240     3.9820 ca         1 VJF      -0.007500
      7 C03         20.9170   -24.8290     6.6620 cc         1 VJF       0.153800
      8 C04         20.3500   -24.5570     8.0140 c3         1 VJF      -0.177200
      9 C05         18.8140   -24.4000     8.1450 c          1 VJF       0.734000
     10 C08         20.3370   -25.0020     5.4630 cd         1 VJF      -0.231400
     11 C12         24.4780   -25.6700     3.8560 c          1 VJF       0.696500
     12 C14         26.8230   -25.5900     4.8840 c3         1 VJF       0.214800
     13 C18         28.8200   -22.5710     6.2830 ca         1 VJF      -0.007500
     14 C19         28.7170   -21.2080     6.0350 ca         1 VJF      -0.133000
     15 N02         22.2970   -24.9740     6.5410 na         1 VJF      -0.385900
     16 N11         24.0850   -25.3910     5.1210 nf         1 VJF      -0.797100
     17 N15         28.2280   -25.7550     4.5160 n7         1 VJF      -0.891300
     18 O01         23.1200   -24.7700     7.5910 oh         1 VJF      -0.348300
     19 O06         18.1490   -24.1670     7.1200 o          1 VJF      -0.717500
     20 O07         18.3950   -24.4900     9.3130 o          1 VJF      -0.717500
     21 O23         30.6530   -25.6130     5.0350 o          1 VJF      -0.553500
     22 O24         29.0510   -25.4030     6.9440 o          1 VJF      -0.553500
     23 O25         23.7150   -25.7880     2.8990 o          1 VJF      -0.631100
     24 S09         21.4860   -25.3420     4.2030 ss         1 VJF      -0.030800
     25 S16         29.3690   -25.1540     5.5440 sy         1 VJF       1.142600
     26 H1          26.1360   -26.8550     3.2800 hc         1 VJF       0.062200
     27 H2          26.2760   -25.1710     2.8490 hc         1 VJF       0.062200
     28 H3          28.9150   -19.6450     4.5840 ha         1 VJF       0.112000
     29 H4          29.6030   -21.1710     2.7640 ha         1 VJF       0.116500
     30 H5          29.7840   -23.5910     3.1820 ha         1 VJF       0.135500
     31 H6          20.6750   -25.3470     8.6970 hc         1 VJF       0.050700
     32 H7          20.8030   -23.6400     8.4060 hc         1 VJF       0.050700
     33 H8          19.2850   -24.9450     5.2520 h4         1 VJF       0.277000
     34 H9          26.6740   -24.5660     5.2290 h1         1 VJF       0.066700
     35 H10         26.5390   -26.2540     5.7020 h1         1 VJF       0.066700
     36 H11         28.5980   -22.9620     7.2670 ha         1 VJF       0.135500
     37 H12         28.4160   -20.5420     6.8320 ha         1 VJF       0.116500
     38 H14         28.4740   -26.6940     4.2130 hn         1 VJF       0.479000
     39 H15         23.3300   -25.6440     7.9560 ho         1 VJF       0.448000
@<TRIPOS>BOND
     1     1    15 1   
     2     1    16 2   
     3     1    24 1   
     4     2    11 1   
     5     2    12 1   
     6     2    26 1   
     7     2    27 1   
     8     3     6 ar  
     9     3    13 ar  
    10     3    25 1   
    11     4     5 ar  
    12     4    14 ar  
    13     4    28 1   
    14     5     6 ar  
    15     5    29 1   
    16     6    30 1   
    17     7     8 1   
    18     7    10 2   
    19     7    15 1   
    20     8     9 1   
    21     8    31 1   
    22     8    32 1   
    23     9    19 1   
    24     9    20 1   
    25    10    24 1   
    26    10    33 1   
    27    11    16 1   
    28    11    23 2   
    29    12    17 1   
    30    12    34 1   
    31    12    35 1   
    32    13    14 ar  
    33    13    36 1   
    34    14    37 1   
    35    15    18 1   
    36    17    25 1   
    37    17    38 1   
    38    18    39 1   
    39    21    25 2   
    40    22    25 2   
@<TRIPOS>SUBSTRUCTURE
     1 VJF         1 TEMP              0 ****  ****    0 ROOT
