@<TRIPOS>MOLECULE
VJG
   37    39     1     0     0
SMALL
bcc


@<TRIPOS>ATOM
      1 C12          1.3740   -32.3530    22.3600 ca         1 VJG      -0.078600
      2 C13          1.5540   -32.4900    23.7350 ca         1 VJG      -0.086500
      3 C14          2.1850   -31.5020    24.4700 ca         1 VJG      -0.109500
      4 C15          1.8450   -31.1980    21.7390 ca         1 VJG      -0.086500
      5 C16          2.4600   -30.1980    22.4680 ca         1 VJG      -0.109500
      6 C17          2.6390   -30.3440    23.8440 ca         1 VJG      -0.159500
      7 C18          3.2990   -29.3200    24.6440 cc         1 VJG       0.483000
      8 C02          0.7510   -33.4250    21.5180 c          1 VJG       0.645700
      9 C03         -0.0040   -34.5400    22.1920 c5         1 VJG      -0.136700
     10 C04          0.9000   -35.8020    22.3060 c5         1 VJG      -0.076400
     11 C05          0.2960   -36.8120    21.3320 c5         1 VJG      -0.079400
     12 C06         -1.1940   -36.5100    21.4050 c5         1 VJG      -0.084400
     13 C07         -1.2540   -34.9800    21.3960 c5         1 VJG      -0.027700
     14 C08         -2.5460   -34.4070    21.9480 c3         1 VJG      -0.206400
     15 C09         -2.6470   -32.8710    21.9540 c          1 VJG       0.928600
     16 N19          3.6390   -28.0880    24.2540 na         1 VJG      -0.163400
     17 N20          4.2170   -27.4580    25.2610 nc         1 VJG      -0.228800
     18 N21          4.2320   -28.2780    26.2370 nd         1 VJG      -0.054000
     19 N22          3.6770   -29.4370    25.8990 nd         1 VJG      -0.402000
     20 O01          0.9740   -33.4350    20.3240 o          1 VJG      -0.548100
     21 O10         -3.7680   -32.3940    22.2220 o          1 VJG      -0.844300
     22 O11         -1.6080   -32.2200    21.7060 o          1 VJG      -0.844300
     23 H1           1.2140   -33.3770    24.2520 ha         1 VJG       0.148500
     24 H2           2.3210   -31.6310    25.5350 ha         1 VJG       0.130000
     25 H3           1.7260   -31.0740    20.6710 ha         1 VJG       0.148500
     26 H4           2.8090   -29.3150    21.9490 ha         1 VJG       0.130000
     27 H5          -0.3140   -34.2270    23.1890 hc         1 VJG       0.072700
     28 H6           0.8440   -36.1880    23.3260 hc         1 VJG       0.029700
     29 H7           1.9550   -35.6010    22.1090 hc         1 VJG       0.029700
     30 H8           0.5470   -37.8430    21.5900 hc         1 VJG       0.033200
     31 H9           0.6650   -36.6310    20.3190 hc         1 VJG       0.033200
     32 H10         -1.6080   -36.8980    22.3420 hc         1 VJG       0.031700
     33 H11         -1.7700   -36.9520    20.5890 hc         1 VJG       0.031700
     34 H12         -1.1360   -34.6530    20.3580 hc         1 VJG       0.067700
     35 H13         -3.3970   -34.8090    21.3870 hc         1 VJG       0.023700
     36 H14         -2.6860   -34.7640    22.9770 hc         1 VJG       0.023700
     37 H15          3.5040   -27.6160    23.3700 hn         1 VJG       0.335700
@<TRIPOS>BOND
     1     1     2 ar  
     2     1     4 ar  
     3     1     8 1   
     4     2     3 ar  
     5     2    23 1   
     6     3     6 ar  
     7     3    24 1   
     8     4     5 ar  
     9     4    25 1   
    10     5     6 ar  
    11     5    26 1   
    12     6     7 1   
    13     7    16 1   
    14     7    19 2   
    15     8     9 1   
    16     8    20 2   
    17     9    10 1   
    18     9    13 1   
    19     9    27 1   
    20    10    11 1   
    21    10    28 1   
    22    10    29 1   
    23    11    12 1   
    24    11    30 1   
    25    11    31 1   
    26    12    13 1   
    27    12    32 1   
    28    12    33 1   
    29    13    14 1   
    30    13    34 1   
    31    14    15 1   
    32    14    35 1   
    33    14    36 1   
    34    15    21 1   
    35    15    22 1   
    36    16    17 1   
    37    16    37 1   
    38    17    18 2   
    39    18    19 1   
@<TRIPOS>SUBSTRUCTURE
     1 VJG         1 TEMP              0 ****  ****    0 ROOT
