@<TRIPOS>MOLECULE
VJG
   37    39     1     0     0
SMALL
No Charge or Current Charge


@<TRIPOS>ATOM
      1 C12          1.4340   -32.4020    22.2720 ca         1 VJG      -0.078600
      2 C13          2.0640   -32.7370    23.4930 ca         1 VJG      -0.068500
      3 C14          2.6770   -31.7440    24.2770 ca         1 VJG      -0.091500
      4 C15          1.4580   -31.0570    21.8500 ca         1 VJG      -0.068500
      5 C16          2.0700   -30.0650    22.6350 ca         1 VJG      -0.091500
      6 C17          2.6860   -30.3950    23.8620 ca         1 VJG      -0.159500
      7 C18          3.3310   -29.3650    24.6930 cc         1 VJG       0.483000
      8 C02          0.7810   -33.4410    21.3810 c          1 VJG       0.645700
      9 C03          0.0650   -34.5640    22.1970 c5         1 VJG      -0.136700
     10 C04          0.9460   -35.8660    22.1800 c5         1 VJG      -0.076400
     11 C05          0.0800   -36.9160    21.4360 c5         1 VJG      -0.079400
     12 C06         -1.3440   -36.4950    21.8630 c5         1 VJG      -0.084400
     13 C07         -1.2930   -34.9840    21.5240 c5         1 VJG      -0.027700
     14 C08         -2.5440   -34.1930    21.9950 c3         1 VJG      -0.206400
     15 C09         -2.5020   -32.7380    21.4980 c          1 VJG       0.718000
     16 N19          3.4070   -28.0310    24.4140 na         1 VJG      -0.213700
     17 N20          4.0740   -27.3740    25.3970 nc         1 VJG      -0.228800
     18 N21          4.3920   -28.3070    26.2520 nd         1 VJG      -0.054000
     19 N22          3.9480   -29.5440    25.8450 nd         1 VJG      -0.402000
     20 O01          0.8770   -33.3970    20.1570 o          1 VJG      -0.548100
     21 O10         -2.9630   -32.4930    20.3940 o          1 VJG      -0.739000
     22 O11         -1.9660   -31.9030    22.2080 o          1 VJG      -0.739000
     23 H1           2.1020   -33.7670    23.8380 ha         1 VJG       0.130500
     24 H2           3.1520   -32.0350    25.2120 ha         1 VJG       0.112000
     25 H3           0.9910   -30.7770    20.9080 ha         1 VJG       0.130500
     26 H4           2.0600   -29.0390    22.2740 ha         1 VJG       0.112000
     27 H5          -0.0820   -34.2410    23.2330 hc         1 VJG       0.072700
     28 H6           1.1560   -36.1970    23.2040 hc         1 VJG       0.029700
     29 H7           1.9180   -35.7240    21.6930 hc         1 VJG       0.029700
     30 H8           0.3220   -37.9420    21.7350 hc         1 VJG       0.033200
     31 H9           0.2130   -36.8530    20.3490 hc         1 VJG       0.033200
     32 H10         -1.5250   -36.6770    22.9300 hc         1 VJG       0.031700
     33 H11         -2.1200   -37.0250    21.2980 hc         1 VJG       0.031700
     34 H12         -1.2500   -34.8690    20.4330 hc         1 VJG       0.067700
     35 H13         -3.4080   -34.7050    21.5520 hc         1 VJG       0.023700
     36 H14         -2.5440   -34.2210    23.0910 hc         1 VJG       0.023700
     37 H15          3.0320   -27.5590    23.6020 hn         1 VJG       0.386000
@<TRIPOS>BOND
     1     1     2 ar  
     2     1     4 ar  
     3     1     8 1   
     4     2     3 ar  
     5     2    23 1   
     6     3     6 ar  
     7     3    24 1   
     8     4     5 ar  
     9     4    25 1   
    10     5     6 ar  
    11     5    26 1   
    12     6     7 1   
    13     7    16 1   
    14     7    19 2   
    15     8     9 1   
    16     8    20 2   
    17     9    10 1   
    18     9    13 1   
    19     9    27 1   
    20    10    11 1   
    21    10    28 1   
    22    10    29 1   
    23    11    12 1   
    24    11    30 1   
    25    11    31 1   
    26    12    13 1   
    27    12    32 1   
    28    12    33 1   
    29    13    14 1   
    30    13    34 1   
    31    14    15 1   
    32    14    35 1   
    33    14    36 1   
    34    15    21 1   
    35    15    22 1   
    36    16    17 1   
    37    16    37 1   
    38    17    18 2   
    39    18    19 1   
@<TRIPOS>SUBSTRUCTURE
     1 VJG         1 TEMP              0 ****  ****    0 ROOT
