@<TRIPOS>MOLECULE
VJH
   72    76     1     0     0
SMALL
bcc


@<TRIPOS>ATOM
      1 C11         27.8950    12.7930     9.3910 ca         1 VJH       0.182600
      2 C12         28.2160    12.5600     8.0540 ca         1 VJH      -0.155000
      3 C13         28.5320    11.2840     7.6160 ca         1 VJH      -0.088500
      4 C16         30.2760     8.4130     8.3570 c          1 VJH       0.672100
      5 C18         31.6860     6.3570     8.3290 ca         1 VJH       0.106600
      6 C19         32.9070     6.9060     8.7290 ca         1 VJH      -0.171000
      7 C22         32.7320     4.2040     8.2230 ca         1 VJH       0.165900
      8 C26         28.2050    10.4440     9.8210 ca         1 VJH      -0.088500
      9 C29         25.8680    16.3650    11.7710 ca         1 VJH       0.631800
     10 C30         25.8650    17.8110    11.9270 cc         1 VJH      -0.356800
     11 C31         25.1760    18.5900    12.8390 cd         1 VJH      -0.105300
     12 C34         25.9150    21.2450    14.5760 c3         1 VJH       0.150800
     13 C36         28.1000    21.2240    15.5340 c3         1 VJH       0.150100
     14 C37         27.6800    22.5690    13.6080 c3         1 VJH       0.150100
     15 N35         27.3320    21.3550    14.3140 n3         1 VJH      -0.705600
     16 C02         24.2300     9.7970    12.2450 cc         1 VJH       0.332600
     17 C05         24.2150    11.9450    12.7450 cd         1 VJH       0.156300
     18 C07         25.1190    14.1710    12.2390 ca         1 VJH       0.755200
     19 C09         26.7390    14.5570    10.7160 ca         1 VJH       0.952900
     20 C14         28.5180    10.2020     8.4870 ca         1 VJH      -0.098300
     21 C20         34.0150     6.0800     8.8650 ca         1 VJH      -0.077000
     22 C21         33.9520     4.7170     8.6170 ca         1 VJH      -0.199000
     23 C24         31.6070     4.9840     8.0750 ca         1 VJH      -0.240000
     24 C27         27.9110    11.7170    10.2800 ca         1 VJH      -0.155000
     25 C39         26.5720    18.7520    11.1500 cc         1 VJH       0.358200
     26 C40         25.0280    15.5430    12.5030 ca         1 VJH      -0.489600
     27 C41         24.7420    11.0470    11.8390 cc         1 VJH      -0.316300
     28 F23         32.6280     2.8890     7.9740 f          1 VJH      -0.144900
     29 N03         23.4540     9.9140    13.3040 nd         1 VJH      -0.523800
     30 N04         23.4580    11.2210    13.5950 na         1 VJH      -0.052600
     31 N08         25.9700    13.6780    11.3500 nb         1 VJH      -0.817000
     32 N10         27.6280    14.1040     9.7880 nu         1 VJH      -0.744300
     33 N17         30.5100     7.0860     8.1590 ns         1 VJH      -0.480100
     34 N28         26.7300    15.8770    10.8740 nb         1 VJH      -0.805000
     35 N32         25.4830    19.8650    12.5720 na         1 VJH       0.126400
     36 N38         26.3320    19.9810    11.5510 nd         1 VJH      -0.517800
     37 O25         31.1110     9.2030     8.7460 o          1 VJH      -0.556100
     38 H121        28.2130    13.3850     7.3510 ha         1 VJH       0.145500
     39 H131        28.7770    11.1320     6.5720 ha         1 VJH       0.130000
     40 H152        28.7320     8.7440     6.9330 hc         1 VJH       0.064700
     41 H151        28.1570     8.0890     8.4460 hc         1 VJH       0.064700
     42 H191        33.0030     7.9590     8.9320 ha         1 VJH       0.171000
     43 H261        28.1970     9.6220    10.5280 ha         1 VJH       0.130000
     44 H311        24.5030    18.3270    13.6410 h4         1 VJH       0.167000
     45 H332        25.1170    21.8830    12.6490 h1         1 VJH       0.067200
     46 H331        24.0310    20.9070    13.6180 h1         1 VJH       0.067200
     47 H341        25.7550    20.3940    15.2430 h1         1 VJH       0.037700
     48 H342        25.5100    22.1300    15.0970 h1         1 VJH       0.037700
     49 H362        27.8720    20.2750    16.0200 h1         1 VJH       0.033200
     50 H363        29.1660    21.2330    15.3040 h1         1 VJH       0.033200
     51 H361        27.9090    22.0290    16.2610 h1         1 VJH       0.033200
     52 H372        27.1970    22.6070    12.6330 h1         1 VJH       0.033200
     53 H371        27.4050    23.4820    14.1590 h1         1 VJH       0.033200
     54 H373        28.7560    22.5970    13.4340 h1         1 VJH       0.033200
     55 H013        24.0090     7.6730    12.1670 hc         1 VJH       0.045033
     56 H012        24.1070     8.4470    10.5860 hc         1 VJH       0.045033
     57 H011        25.5560     8.2640    11.5570 hc         1 VJH       0.045033
     58 H201        34.9550     6.5180     9.1760 ha         1 VJH       0.137000
     59 H211        34.8190     4.0790     8.7260 ha         1 VJH       0.152000
     60 H241        30.6740     4.5300     7.7650 ha         1 VJH       0.144000
     61 H271        27.6920    11.8680    11.3250 ha         1 VJH       0.145500
     62 H391        27.2280    18.5620    10.3150 h4         1 VJH       0.052100
     63 H401        24.3270    15.9330    13.2270 ha         1 VJH       0.143000
     64 H411        25.3980    11.2540    11.0150 ha         1 VJH       0.189000
     65 H041        22.9240    11.5620    14.3790 hn         1 VJH       0.312700
     66 H061        23.6810    13.7260    13.5850 hn         1 VJH       0.443800
     67 H101        28.0480    14.8360     9.2340 hn         1 VJH       0.457800
     68 H171        29.7170     6.5450     7.8460 hn         1 VJH       0.316500
     69 C15         28.8500     8.8190     8.0180 c3         1 VJH      -0.107100
     70 N06         24.3030    13.3100    12.9080 nu         1 VJH      -0.741300
     71 C33         25.0740    21.0320    13.3250 c3         1 VJH       0.054300
     72 C01         24.4870     8.4750    11.6080 c3         1 VJH      -0.119400
@<TRIPOS>BOND
     1     1     2 ar  
     2     1    24 ar  
     3     1    32 1   
     4     2     3 ar  
     5     2    38 1   
     6     3    20 ar  
     7     3    39 1   
     8     4    33 1   
     9     4    37 2   
    10     4    69 1   
    11     5     6 ar  
    12     5    23 ar  
    13     5    33 1   
    14     6    21 ar  
    15     6    42 1   
    16     7    22 ar  
    17     7    23 ar  
    18     7    28 1   
    19     8    20 ar  
    20     8    24 ar  
    21     8    43 1   
    22     9    10 1   
    23     9    26 ar  
    24     9    34 ar  
    25    10    11 2   
    26    10    25 1   
    27    11    35 1   
    28    11    44 1   
    29    12    15 1   
    30    12    47 1   
    31    12    48 1   
    32    12    71 1   
    33    13    15 1   
    34    13    49 1   
    35    13    50 1   
    36    13    51 1   
    37    14    15 1   
    38    14    52 1   
    39    14    53 1   
    40    14    54 1   
    41    16    27 1   
    42    16    29 2   
    43    16    72 1   
    44    17    27 2   
    45    17    30 1   
    46    17    70 1   
    47    18    26 ar  
    48    18    31 ar  
    49    18    70 1   
    50    19    31 ar  
    51    19    32 1   
    52    19    34 ar  
    53    20    69 1   
    54    21    22 ar  
    55    21    58 1   
    56    22    59 1   
    57    23    60 1   
    58    24    61 1   
    59    25    36 2   
    60    25    62 1   
    61    26    63 1   
    62    27    64 1   
    63    29    30 1   
    64    30    65 1   
    65    32    67 1   
    66    33    68 1   
    67    35    36 1   
    68    35    71 1   
    69    40    69 1   
    70    41    69 1   
    71    45    71 1   
    72    46    71 1   
    73    55    72 1   
    74    56    72 1   
    75    57    72 1   
    76    66    70 1   
@<TRIPOS>SUBSTRUCTURE
     1 VJH         1 TEMP              0 ****  ****    0 ROOT
