@<TRIPOS>MOLECULE
VJH
   72    76     1     0     0
SMALL
No Charge or Current Charge


@<TRIPOS>ATOM
      1 C11         27.6690    12.5600     8.7420 ca         1 VJH       0.321000
      2 C12         27.8460    12.3110     7.3710 ca         1 VJH      -0.137000
      3 C13         28.0840    11.0060     6.9050 ca         1 VJH      -0.070500
      4 C16         29.9250     8.2190     7.2700 c          1 VJH       0.605100
      5 C18         31.6730     6.9810     8.6940 ca         1 VJH       0.014000
      6 C19         32.8330     7.1980     7.9160 ca         1 VJH      -0.153000
      7 C22         33.0280     5.7410    10.3010 ca         1 VJH       0.201000
      8 C26         28.0000    10.1800     9.1870 ca         1 VJH      -0.070500
      9 C29         26.2250    16.3590    11.3600 ca         1 VJH       0.303500
     10 C30         26.3590    17.8090    11.4880 cc         1 VJH      -0.291500
     11 C31         25.7230    18.5500    12.4430 cd         1 VJH      -0.138000
     12 C34         25.8050    20.9490    14.4680 c3         1 VJH       0.150800
     13 C36         27.0980    20.3190    16.4700 c3         1 VJH       0.150100
     14 C37         28.1970    21.6070    14.6900 c3         1 VJH       0.150100
     15 N35         27.1470    20.6130    15.0200 n3         1 VJH      -0.705600
     16 C02         24.0300     9.9250    12.5170 cc         1 VJH       0.267300
     17 C05         24.3020    12.0870    12.8980 cd         1 VJH       0.244000
     18 C07         25.3710    14.2200    12.0240 ca         1 VJH       0.426900
     19 C09         26.7630    14.4370    10.2380 ca         1 VJH       0.426900
     20 C14         28.1560     9.9320     7.8110 ca         1 VJH      -0.098300
     21 C20         34.0770     6.6890     8.3310 ca         1 VJH      -0.059000
     22 C21         34.1740     5.9600     9.5260 ca         1 VJH      -0.181000
     23 C24         31.7850     6.2470     9.8900 ca         1 VJH      -0.222000
     24 C27         27.7630    11.4870     9.6480 ca         1 VJH      -0.137000
     25 C39         27.1070    18.7050    10.7120 cc         1 VJH       0.292900
     26 C40         25.4400    15.5960    12.2430 ca         1 VJH      -0.341000
     27 C41         24.5770    11.1080    12.0020 cc         1 VJH      -0.233000
     28 F23         33.1180     5.0390    11.4510 f          1 VJH      -0.180000
     29 N03         23.4200    10.0820    13.6760 nd         1 VJH      -0.523800
     30 N04         23.5890    11.4510    13.9180 na         1 VJH      -0.052200
     31 N08         26.0300    13.6340    11.0190 nb         1 VJH      -0.291000
     32 N10         27.4370    13.8740     9.1640 nu         1 VJH      -0.937900
     33 N17         30.3830     7.4620     8.3420 ns         1 VJH      -0.154000
     34 N28         26.8860    15.7670    10.3460 nb         1 VJH      -0.279000
     35 N32         26.1380    19.8650    12.1920 na         1 VJH       0.147800
     36 N38         26.9960    19.9590    11.0990 nd         1 VJH      -0.517800
     37 O25         30.6370     8.6400     6.3660 o          1 VJH      -0.556100
     38 H121        27.7890    13.1290     6.6580 ha         1 VJH       0.127500
     39 H131        28.2130    10.8320     5.8380 ha         1 VJH       0.112000
     40 H152        28.0150     8.4030     6.2950 hc         1 VJH       0.064700
     41 H151        27.9180     7.8020     7.9750 hc         1 VJH       0.064700
     42 H191        32.7940     7.7560     6.9860 ha         1 VJH       0.153000
     43 H261        28.0670     9.3640     9.9040 ha         1 VJH       0.112000
     44 H311        25.0460    18.2840    13.2460 h4         1 VJH       0.149000
     45 H332        26.3230    21.9220    12.5910 h1         1 VJH       0.067200
     46 H331        24.6770    21.2880    12.6510 h1         1 VJH       0.067200
     47 H341        25.0850    20.1800    14.7770 h1         1 VJH       0.037700
     48 H342        25.4560    21.8950    14.9030 h1         1 VJH       0.037700
     49 H362        26.3780    19.5170    16.6800 h1         1 VJH       0.033200
     50 H363        28.0810    19.9910    16.8340 h1         1 VJH       0.033200
     51 H361        26.8000    21.2080    17.0410 h1         1 VJH       0.033200
     52 H372        28.3260    21.7020    13.6040 h1         1 VJH       0.033200
     53 H371        27.9440    22.5950    15.0980 h1         1 VJH       0.033200
     54 H373        29.1650    21.3010    15.1100 h1         1 VJH       0.033200
     55 H013        23.9260     7.7720    12.4710 hc         1 VJH       0.045033
     56 H012        23.4170     8.5680    10.9690 hc         1 VJH       0.045033
     57 H011        25.1390     8.4710    11.3840 hc         1 VJH       0.045033
     58 H201        34.9650     6.8620     7.7250 ha         1 VJH       0.119000
     59 H211        35.1330     5.5640     9.8520 ha         1 VJH       0.134000
     60 H241        30.9090     6.0650    10.5070 ha         1 VJH       0.126000
     61 H271        27.6720    11.6580    10.7160 ha         1 VJH       0.127500
     62 H391        27.7350    18.4740     9.8610 h4         1 VJH       0.052100
     63 H401        24.9020    16.0530    13.0650 ha         1 VJH       0.125000
     64 H411        25.1060    11.1910    11.0620 ha         1 VJH       0.171000
     65 H041        23.2230    11.8950    14.7550 hn         1 VJH       0.363000
     66 H061        24.2040    13.9590    13.6440 hn         1 VJH       0.499000
     67 H101        27.7500    14.5810     8.5000 hn         1 VJH       0.513000
     68 H171        29.6600     7.2040     9.0020 hn         1 VJH       0.150000
     69 C15         28.4190     8.5150     7.3080 c3         1 VJH      -0.107100
     70 N06         24.6100    13.4280    12.8740 nu         1 VJH      -0.934900
     71 C33         25.7160    21.0730    12.9260 c3         1 VJH       0.083600
     72 C01         24.1330     8.6110    11.7970 c3         1 VJH      -0.119400
@<TRIPOS>BOND
     1     1     2 ar  
     2     1    24 ar  
     3     1    32 1   
     4     2     3 ar  
     5     2    38 1   
     6     3    20 ar  
     7     3    39 1   
     8     4    33 1   
     9     4    37 2   
    10     4    69 1   
    11     5     6 ar  
    12     5    23 ar  
    13     5    33 1   
    14     6    21 ar  
    15     6    42 1   
    16     7    22 ar  
    17     7    23 ar  
    18     7    28 1   
    19     8    20 ar  
    20     8    24 ar  
    21     8    43 1   
    22     9    10 1   
    23     9    26 ar  
    24     9    34 ar  
    25    10    11 2   
    26    10    25 1   
    27    11    35 1   
    28    11    44 1   
    29    12    15 1   
    30    12    47 1   
    31    12    48 1   
    32    12    71 1   
    33    13    15 1   
    34    13    49 1   
    35    13    50 1   
    36    13    51 1   
    37    14    15 1   
    38    14    52 1   
    39    14    53 1   
    40    14    54 1   
    41    16    27 1   
    42    16    29 2   
    43    16    72 1   
    44    17    27 2   
    45    17    30 1   
    46    17    70 1   
    47    18    26 ar  
    48    18    31 ar  
    49    18    70 1   
    50    19    31 ar  
    51    19    32 1   
    52    19    34 ar  
    53    20    69 1   
    54    21    22 ar  
    55    21    58 1   
    56    22    59 1   
    57    23    60 1   
    58    24    61 1   
    59    25    36 2   
    60    25    62 1   
    61    26    63 1   
    62    27    64 1   
    63    29    30 1   
    64    30    65 1   
    65    32    67 1   
    66    33    68 1   
    67    35    36 1   
    68    35    71 1   
    69    40    69 1   
    70    41    69 1   
    71    45    71 1   
    72    46    71 1   
    73    55    72 1   
    74    56    72 1   
    75    57    72 1   
    76    66    70 1   
@<TRIPOS>SUBSTRUCTURE
     1 VJH         1 TEMP              0 ****  ****    0 ROOT
