@<TRIPOS>MOLECULE
VJI
   28    29     1     0     0
SMALL
abcg2


@<TRIPOS>ATOM
      1 N1          31.3770    31.1540    39.0380 n8         1 VJI      -1.002200
      2 C7          29.4550    32.6600    38.9950 c3         1 VJI       0.146800
      3 C8          33.9340    36.2330    42.1710 c6         1 VJI       0.119600
      4 C9          34.8650    36.7370    41.0950 c6         1 VJI       0.119600
      5 O1          34.1590    36.8610    39.8530 os         1 VJI      -0.339100
      6 C1          32.9140    35.6290    38.2480 ca         1 VJI      -0.110000
      7 C5          31.7800    33.5780    38.8550 ca         1 VJI      -0.088300
      8 C6          30.8800    32.4200    38.4840 c3         1 VJI       0.220800
      9 C4          32.2350    33.7390    40.1610 ca         1 VJI      -0.078000
     10 C3          33.0180    34.8290    40.5180 ca         1 VJI       0.051100
     11 C2          33.3730    35.7800    39.5510 ca         1 VJI       0.058100
     12 N           28.5560    31.5870    38.5560 n8         1 VJI      -1.013200
     13 C           32.1230    34.5390    37.9050 ca         1 VJI      -0.110000
     14 O           33.4310    34.9360    41.8200 os         1 VJI      -0.337100
     15 H1          30.6930    30.4320    38.8360 hn         1 VJI       0.407000
     16 H2          32.2390    30.8880    38.5740 hn         1 VJI       0.407000
     17 H4          29.4730    32.6670    40.0870 h1         1 VJI       0.042700
     18 H5          29.1340    33.6550    38.6630 h1         1 VJI       0.042700
     19 H7          33.0940    36.9220    42.3010 h1         1 VJI       0.067200
     20 H8          35.7060    36.0500    40.9650 h1         1 VJI       0.067700
     21 H9          35.2410    37.7290    41.3380 h1         1 VJI       0.067700
     22 H10         33.1970    36.3690    37.5110 ha         1 VJI       0.127000
     23 H11         30.8240    32.3900    37.3860 h1         1 VJI       0.015700
     24 H12         31.9830    33.0110    40.9220 ha         1 VJI       0.144000
     25 H13         27.6530    31.6850    39.0060 hn         1 VJI       0.396000
     26 H14         28.3870    31.6690    37.5570 hn         1 VJI       0.396000
     27 H16         31.7770    34.4310    36.8840 ha         1 VJI       0.113000
     28 H6          34.4570    36.1170    43.1170 h1         1 VJI       0.067200
@<TRIPOS>BOND
     1     1     8 1   
     2     1    15 1   
     3     1    16 1   
     4     2     8 1   
     5     2    12 1   
     6     2    17 1   
     7     2    18 1   
     8     3     4 1   
     9     3    14 1   
    10     3    19 1   
    11     3    28 1   
    12     4     5 1   
    13     4    20 1   
    14     4    21 1   
    15     5    11 1   
    16     6    11 ar  
    17     6    13 ar  
    18     6    22 1   
    19     7     8 1   
    20     7     9 ar  
    21     7    13 ar  
    22     8    23 1   
    23     9    10 ar  
    24     9    24 1   
    25    10    11 ar  
    26    10    14 1   
    27    12    25 1   
    28    12    26 1   
    29    13    27 1   
@<TRIPOS>SUBSTRUCTURE
     1 VJI         1 TEMP              0 ****  ****    0 ROOT
