@<TRIPOS>MOLECULE
VJI
   28    29     1     0     0
SMALL
No Charge or Current Charge


@<TRIPOS>ATOM
      1 N1          31.4850    31.1330    38.7430 n8         1 VJI      -1.002200
      2 C7          29.4370    32.5190    39.1700 c3         1 VJI       0.146800
      3 C8          33.8760    36.3620    42.2120 c6         1 VJI       0.119600
      4 C9          34.9180    36.7730    41.1490 c6         1 VJI       0.119600
      5 O1          34.3080    36.7840    39.8390 os         1 VJI      -0.339100
      6 C1          33.0870    35.5340    38.1880 ca         1 VJI      -0.110000
      7 C5          31.7560    33.5890    38.8480 ca         1 VJI      -0.088300
      8 C6          30.8330    32.4300    38.4700 c3         1 VJI       0.220800
      9 C4          32.1260    33.8060    40.1930 ca         1 VJI      -0.078000
     10 C3          32.9620    34.8810    40.5360 ca         1 VJI       0.051100
     11 C2          33.4590    35.7410    39.5250 ca         1 VJI       0.058100
     12 N           28.4490    31.5320    38.6440 n8         1 VJI      -1.013200
     13 C           32.2400    34.4620    37.8500 ca         1 VJI      -0.110000
     14 O           33.2930    35.0860    41.8620 os         1 VJI      -0.337100
     15 H1          30.7910    30.4050    38.5390 hn         1 VJI       0.407000
     16 H2          32.2160    30.9820    38.0400 hn         1 VJI       0.407000
     17 H4          29.5540    32.3640    40.2520 h1         1 VJI       0.042700
     18 H5          29.0300    33.5290    39.0170 h1         1 VJI       0.042700
     19 H7          33.0790    37.1180    42.2560 h1         1 VJI       0.067200
     20 H8          35.7470    36.0510    41.1510 h1         1 VJI       0.067700
     21 H9          35.3260    37.7690    41.3700 h1         1 VJI       0.067700
     22 H10         33.4620    36.1980    37.4130 ha         1 VJI       0.127000
     23 H11         30.6560    32.4720    37.3860 h1         1 VJI       0.015700
     24 H12         31.7630    33.1420    40.9740 ha         1 VJI       0.144000
     25 H13         27.5410    31.6940    39.0990 hn         1 VJI       0.396000
     26 H14         28.2620    31.7400    37.6560 hn         1 VJI       0.396000
     27 H16         31.9620    34.3110    36.8100 ha         1 VJI       0.113000
     28 H6          34.3400    36.2900    43.2050 h1         1 VJI       0.067200
@<TRIPOS>BOND
     1     1     8 1   
     2     1    15 1   
     3     1    16 1   
     4     2     8 1   
     5     2    12 1   
     6     2    17 1   
     7     2    18 1   
     8     3     4 1   
     9     3    14 1   
    10     3    19 1   
    11     3    28 1   
    12     4     5 1   
    13     4    20 1   
    14     4    21 1   
    15     5    11 1   
    16     6    11 ar  
    17     6    13 ar  
    18     6    22 1   
    19     7     8 1   
    20     7     9 ar  
    21     7    13 ar  
    22     8    23 1   
    23     9    10 ar  
    24     9    24 1   
    25    10    11 ar  
    26    10    14 1   
    27    12    25 1   
    28    12    26 1   
    29    13    27 1   
@<TRIPOS>SUBSTRUCTURE
     1 VJI         1 TEMP              0 ****  ****    0 ROOT
