@<TRIPOS>MOLECULE
VJJ
   25    26     1     0     0
SMALL
bcc


@<TRIPOS>ATOM
      1 OAA          2.8380     2.1590     0.6230 o          1 VJJ      -0.821300
      2 OAB          4.3510     0.9040    -0.4270 o          1 VJJ      -0.821300
      3 CAC         -4.2790     1.0940    -0.9230 ca         1 VJJ      -0.182000
      4 CAD         -3.0970     0.8280    -1.5990 ca         1 VJJ      -0.102500
      5 CAE         -4.3940     0.7200     0.4110 ca         1 VJJ      -0.102500
      6 CAF          1.6900    -2.3270    -0.5550 ca         1 VJJ      -0.159000
      7 CAG         -2.0350     0.1970    -0.9620 ca         1 VJJ      -0.182000
      8 CAH         -3.3450     0.0910     1.0610 ca         1 VJJ      -0.182000
      9 CAI          0.4100    -2.1700    -0.0380 ca         1 VJJ      -0.161000
     10 CAJ          2.5960    -1.2760    -0.5220 ca         1 VJJ      -0.102000
     11 CAK          0.9610     0.1050     0.5580 ca         1 VJJ      -0.109000
     12 CAM          3.2340     1.1090     0.0820 c          1 VJJ       0.924200
     13 CAN         -2.1630    -0.1700     0.3730 ca         1 VJJ       0.159100
     14 CAO          0.0620    -0.9490     0.5180 ca         1 VJJ       0.045100
     15 CAP          2.2420    -0.0500     0.0370 ca         1 VJJ      -0.129600
     16 HAE         -5.3090     0.9200     0.9540 ha         1 VJJ       0.118500
     17 HAF          1.9780    -3.2760    -0.9880 ha         1 VJJ       0.108000
     18 HAG         -1.1250    -0.0030    -1.5120 ha         1 VJJ       0.146500
     19 HAH         -3.4380    -0.1990     2.1010 ha         1 VJJ       0.146500
     20 HAI         -0.3050    -2.9820    -0.0620 ha         1 VJJ       0.118000
     21 HAJ          3.5890    -1.4090    -0.9290 ha         1 VJJ       0.148000
     22 HAK          0.6680     1.0500     0.9980 ha         1 VJJ       0.161000
     23 HAC         -5.0990     1.5870    -1.4270 ha         1 VJJ       0.118000
     24 OAL         -1.1860    -0.8030     1.0790 os         1 VJJ      -0.259200
     25 HAD         -2.9900     1.1110    -2.6380 ha         1 VJJ       0.118500
@<TRIPOS>BOND
     1     1    12 1   
     2     2    12 1   
     3     3     4 ar  
     4     3     5 ar  
     5     3    23 1   
     6     4     7 ar  
     7     4    25 1   
     8     5     8 ar  
     9     5    16 1   
    10     6     9 ar  
    11     6    10 ar  
    12     6    17 1   
    13     7    13 ar  
    14     7    18 1   
    15     8    13 ar  
    16     8    19 1   
    17     9    14 ar  
    18     9    20 1   
    19    10    15 ar  
    20    10    21 1   
    21    11    14 ar  
    22    11    15 ar  
    23    11    22 1   
    24    12    15 1   
    25    13    24 1   
    26    14    24 1   
@<TRIPOS>SUBSTRUCTURE
     1 VJJ         1 TEMP              0 ****  ****    0 ROOT
