@<TRIPOS>MOLECULE
VJJ
   25    26     1     0     0
SMALL
No Charge or Current Charge


@<TRIPOS>ATOM
      1 OAA          2.2570     2.2920     0.1790 o          1 VJJ      -0.716000
      2 OAB          4.0440     1.2280    -0.3590 o          1 VJJ      -0.716000
      3 CAC         -4.1270     1.5120    -0.7170 ca         1 VJJ      -0.164000
      4 CAD         -3.0880     1.1040    -1.5700 ca         1 VJJ      -0.084500
      5 CAE         -4.2330     0.9690     0.5760 ca         1 VJJ      -0.084500
      6 CAF          2.0250    -2.4990    -0.2480 ca         1 VJJ      -0.141000
      7 CAG         -2.1490     0.1550    -1.1290 ca         1 VJJ      -0.164000
      8 CAH         -3.2940     0.0200     1.0160 ca         1 VJJ      -0.164000
      9 CAI          0.6550    -2.5030     0.0590 ca         1 VJJ      -0.143000
     10 CAJ          2.7350    -1.2870    -0.2960 ca         1 VJJ      -0.084000
     11 CAK          0.7030    -0.0760     0.2760 ca         1 VJJ      -0.091000
     12 CAM          2.8540     1.2550    -0.0740 c          1 VJJ       0.713600
     13 CAN         -2.2470    -0.3810     0.1710 ca         1 VJJ       0.159100
     14 CAO         -0.0080    -1.2930     0.3100 ca         1 VJJ       0.045100
     15 CAP          2.0850    -0.0570    -0.0320 ca         1 VJJ      -0.129600
     16 HAE         -5.0410     1.2820     1.2340 ha         1 VJJ       0.100500
     17 HAF          2.5390    -3.4370    -0.4480 ha         1 VJJ       0.090000
     18 HAG         -1.3540    -0.1670    -1.7960 ha         1 VJJ       0.128500
     19 HAH         -3.3750    -0.4040     2.0140 ha         1 VJJ       0.128500
     20 HAI          0.1080    -3.4420     0.0980 ha         1 VJJ       0.100000
     21 HAJ          3.7960    -1.3070    -0.5360 ha         1 VJJ       0.130000
     22 HAK          0.1820     0.8530     0.4940 ha         1 VJJ       0.143000
     23 HAC         -4.8530     2.2460    -1.0580 ha         1 VJJ       0.100000
     24 OAL         -1.3490    -1.3230     0.6230 os         1 VJJ      -0.259200
     25 HAD         -3.0110     1.5200    -2.5730 ha         1 VJJ       0.100500
@<TRIPOS>BOND
     1     1    12 1   
     2     2    12 1   
     3     3     4 ar  
     4     3     5 ar  
     5     3    23 1   
     6     4     7 ar  
     7     4    25 1   
     8     5     8 ar  
     9     5    16 1   
    10     6     9 ar  
    11     6    10 ar  
    12     6    17 1   
    13     7    13 ar  
    14     7    18 1   
    15     8    13 ar  
    16     8    19 1   
    17     9    14 ar  
    18     9    20 1   
    19    10    15 ar  
    20    10    21 1   
    21    11    14 ar  
    22    11    15 ar  
    23    11    22 1   
    24    12    15 1   
    25    13    24 1   
    26    14    24 1   
@<TRIPOS>SUBSTRUCTURE
     1 VJJ         1 TEMP              0 ****  ****    0 ROOT
