@<TRIPOS>MOLECULE
VJM
   55    59     1     0     0
SMALL
No Charge or Current Charge


@<TRIPOS>ATOM
      1 C01         17.0150    20.2730    67.6150 c3         1 VJM      -0.109100
      2 C02         17.2700    20.5490    66.1080 c6         1 VJM       0.198500
      3 C03         16.0400    21.2320    65.4270 c6         1 VJM       0.143600
      4 C05         15.3170    19.1840    64.4120 c6         1 VJM       0.143600
      5 C06         16.5080    18.3880    65.0240 c6         1 VJM       0.181800
      6 C08         18.9700    18.7340    65.5630 ca         1 VJM       0.383900
      7 C10         21.2320    19.1490    65.8430 cp         1 VJM       0.225500
      8 C12         20.5600    16.9430    65.7260 ca         1 VJM       0.227300
      9 C13         19.2300    17.3550    65.5730 ca         1 VJM      -0.272000
     10 C14         20.9350    15.4930    65.7620 cx         1 VJM      -0.271300
     11 C15         20.4710    14.5330    64.6830 cx         1 VJM      -0.094400
     12 C16         21.9310    14.9120    64.7770 cx         1 VJM      -0.094400
     13 C20         21.8810    15.8260    68.7960 c3         1 VJM      -0.075100
     14 C21         22.3560    20.1410    66.0180 cp         1 VJM      -0.056500
     15 C22         22.2860    21.5170    65.6610 ca         1 VJM      -0.096800
     16 C23         21.2460    22.3040    65.0450 cc         1 VJM      -0.214200
     17 C24         21.7140    23.5990    64.9130 cd         1 VJM      -0.165100
     18 C26         23.3570    22.3760    65.8640 ca         1 VJM       0.354500
     19 C28         24.6420    20.6850    66.7470 ca         1 VJM       0.341900
     20 C29         23.6050    19.7490    66.5760 ca         1 VJM      -0.159000
     21 N07         17.6630    19.2660    65.4210 nh         1 VJM      -0.774300
     22 N09         19.9770    19.6170    65.7000 nb         1 VJM      -0.259000
     23 N11         21.5550    17.8390    65.8600 nb         1 VJM      -0.237000
     24 N18         21.3050    13.3050    67.5990 n8         1 VJM      -1.262000
     25 N25         23.0280    23.6450    65.4290 na         1 VJM      -0.329400
     26 N27         24.5280    21.9870    66.4000 nb         1 VJM      -0.677000
     27 O04         14.9500    20.2980    65.2540 os         1 VJM      -0.440000
     28 O19         19.5230    14.6070    68.0250 oh         1 VJM      -0.566700
     29 S17         20.9880    14.9260    67.5140 s6         1 VJM       0.537700
     30 H011        17.9030    19.8460    68.0950 hc         1 VJM       0.043700
     31 H013        16.7670    21.1990    68.1460 hc         1 VJM       0.043700
     32 H012        16.1840    19.5730    67.7620 hc         1 VJM       0.043700
     33 H021        18.0910    21.2800    66.0500 h1         1 VJM       0.091700
     34 H031        16.3350    21.6240    64.4420 h1         1 VJM       0.054200
     35 H032        15.6960    22.0800    66.0350 h1         1 VJM       0.054200
     36 H052        14.4490    18.5200    64.2930 h1         1 VJM       0.052200
     37 H051        15.5950    19.5600    63.4170 h1         1 VJM       0.052200
     38 H062        16.1470    17.8270    65.8990 h1         1 VJM       0.051700
     39 H061        16.8290    17.6510    64.2740 h1         1 VJM       0.051700
     40 H131        18.4400    16.6180    65.4850 ha         1 VJM       0.135000
     41 H152        19.9010    14.9380    63.8500 hc         1 VJM       0.066700
     42 H151        20.1890    13.5230    64.9700 hc         1 VJM       0.066700
     43 H161        22.6290    14.1570    65.1290 hc         1 VJM       0.066700
     44 H162        22.3290    15.5690    64.0070 hc         1 VJM       0.066700
     45 H201        21.7540    15.2960    69.7460 h1         1 VJM       0.100700
     46 H203        22.9380    15.8680    68.5120 h1         1 VJM       0.100700
     47 H231        20.2660    21.9710    64.7110 ha         1 VJM       0.216000
     48 H241        21.2210    24.4740    64.4920 h4         1 VJM       0.212000
     49 H281        25.5940    20.3810    67.1800 h4         1 VJM       0.018100
     50 H291        23.7800    18.7240    66.8900 ha         1 VJM       0.135000
     51 H1          22.3200    13.2060    67.7060 hn         1 VJM       0.381000
     52 H181        21.1640    12.9450    66.6500 hn         1 VJM       0.381000
     53 H251        23.6400    24.4510    65.4720 hn         1 VJM       0.359000
     54 H2          19.7280    13.6610    68.1990 ho         1 VJM       0.469000
     55 H202        21.4600    16.8350    68.8570 h1         1 VJM       0.100700
@<TRIPOS>BOND
     1     1     2 1   
     2     1    30 1   
     3     1    31 1   
     4     1    32 1   
     5     2     3 1   
     6     2    21 1   
     7     2    33 1   
     8     3    27 1   
     9     3    34 1   
    10     3    35 1   
    11     4     5 1   
    12     4    27 1   
    13     4    36 1   
    14     4    37 1   
    15     5    21 1   
    16     5    38 1   
    17     5    39 1   
    18     6     9 ar  
    19     6    21 1   
    20     6    22 ar  
    21     7    14 1   
    22     7    22 ar  
    23     7    23 ar  
    24     8     9 ar  
    25     8    10 1   
    26     8    23 ar  
    27     9    40 1   
    28    10    11 1   
    29    10    12 1   
    30    10    29 1   
    31    11    12 1   
    32    11    41 1   
    33    11    42 1   
    34    12    43 1   
    35    12    44 1   
    36    13    29 1   
    37    13    45 1   
    38    13    46 1   
    39    13    55 1   
    40    14    15 ar  
    41    14    20 ar  
    42    15    16 1   
    43    15    18 ar  
    44    16    17 2   
    45    16    47 1   
    46    17    25 1   
    47    17    48 1   
    48    18    25 1   
    49    18    26 ar  
    50    19    20 ar  
    51    19    26 ar  
    52    19    49 1   
    53    20    50 1   
    54    24    29 3   
    55    24    51 1   
    56    24    52 1   
    57    25    53 1   
    58    28    29 1   
    59    28    54 1   
@<TRIPOS>SUBSTRUCTURE
     1 VJM         1 TEMP              0 ****  ****    0 ROOT
