@<TRIPOS>MOLECULE
VJM
   55    59     1     0     0
SMALL
bcc


@<TRIPOS>ATOM
      1 C01         17.1220    20.5330    67.4080 c3         1 VJM      -0.109100
      2 C02         17.3700    20.5230    65.9020 c6         1 VJM       0.198500
      3 C03         16.1970    21.0780    65.1090 c6         1 VJM       0.120400
      4 C05         15.4020    18.9870    64.5650 c6         1 VJM       0.120400
      5 C06         16.5380    18.2900    65.2930 c6         1 VJM       0.181800
      6 C08         18.9400    18.6840    65.5510 ca         1 VJM       0.712200
      7 C10         21.1580    19.1090    65.8780 cp         1 VJM       0.751500
      8 C12         20.5700    16.9420    65.5660 ca         1 VJM       0.555600
      9 C13         19.2450    17.3170    65.4460 ca         1 VJM      -0.420600
     10 C14         20.9680    15.5250    65.5040 cx         1 VJM      -0.160500
     11 C15         20.5200    14.6560    64.3780 cx         1 VJM      -0.094400
     12 C16         21.9610    15.0640    64.4960 cx         1 VJM      -0.094400
     13 C20         22.4070    15.5610    67.8140 c3         1 VJM       0.035700
     14 C21         22.2290    20.1010    66.1320 cp         1 VJM      -0.056500
     15 C22         22.0850    21.4730    65.8790 ca         1 VJM      -0.162100
     16 C23         21.0830    22.3390    65.3450 cc         1 VJM      -0.164200
     17 C24         21.6140    23.5960    65.3390 cd         1 VJM      -0.115100
     18 C26         23.2070    22.2940    66.1710 ca         1 VJM       0.419800
     19 C28         24.4680    20.6080    66.9050 ca         1 VJM       0.407200
     20 C29         23.4530    19.6880    66.6480 ca         1 VJM      -0.242300
     21 N07         17.6810    19.1780    65.4180 nh         1 VJM      -0.774300
     22 N09         19.9210    19.5660    65.7810 nb         1 VJM      -0.785000
     23 N11         21.5370    17.8450    65.7750 nb         1 VJM      -0.763000
     24 N18         21.2350    13.4640    68.7300 n8         1 VJM      -1.151600
     25 N25         22.8850    23.5720    65.8360 na         1 VJM      -0.279100
     26 N27         24.3670    21.9090    66.6720 nb         1 VJM      -0.677000
     27 O04         15.0780    20.2250    65.1470 os         1 VJM      -0.393600
     28 O19         19.6330    14.9760    67.4700 oh         1 VJM      -0.527700
     29 S17         21.1740    14.4520    67.1130 s6         1 VJM       0.316100
     30 H011        17.9860    20.1420    67.9440 hc         1 VJM       0.043700
     31 H013        16.9500    21.5530    67.7550 hc         1 VJM       0.043700
     32 H012        16.2520    19.9380    67.6860 hc         1 VJM       0.043700
     33 H021        18.2240    21.1620    65.6860 h1         1 VJM       0.091700
     34 H031        16.5110    21.2500    64.0690 h1         1 VJM       0.054200
     35 H032        15.8960    22.0390    65.5310 h1         1 VJM       0.054200
     36 H052        14.5130    18.3570    64.6000 h1         1 VJM       0.052200
     37 H051        15.6790    19.1210    63.5100 h1         1 VJM       0.052200
     38 H062        16.2040    17.9350    66.2760 h1         1 VJM       0.051700
     39 H061        16.8060    17.4140    64.7060 h1         1 VJM       0.051700
     40 H131        18.4950    16.5580    65.2890 ha         1 VJM       0.153000
     41 H152        19.9270    15.0990    63.5870 hc         1 VJM       0.066700
     42 H151        20.2640    13.6230    64.5950 hc         1 VJM       0.066700
     43 H161        22.6810    14.3070    64.7990 hc         1 VJM       0.066700
     44 H162        22.3560    15.7840    63.7890 hc         1 VJM       0.066700
     45 H201        23.1000    14.9660    68.3990 h1         1 VJM       0.100700
     46 H203        22.9100    16.0940    67.0140 h1         1 VJM       0.100700
     47 H231        20.0980    22.0720    65.0080 ha         1 VJM       0.166000
     48 H241        21.1730    24.5240    65.0110 h4         1 VJM       0.162000
     49 H281        25.4090    20.2640    67.3190 h4         1 VJM       0.018100
     50 H291        23.6250    18.6430    66.8640 ha         1 VJM       0.153000
     51 H1          20.9840    13.9680    69.5790 hn         1 VJM       0.325800
     52 H181        20.5910    12.6810    68.6490 hn         1 VJM       0.325800
     53 H251        23.4930    24.3690    65.9350 hn         1 VJM       0.308700
     54 H2          19.3570    14.5100    68.2730 ho         1 VJM       0.430000
     55 H202        21.9010    16.2800    68.4580 h1         1 VJM       0.100700
@<TRIPOS>BOND
     1     1     2 1   
     2     1    30 1   
     3     1    31 1   
     4     1    32 1   
     5     2     3 1   
     6     2    21 1   
     7     2    33 1   
     8     3    27 1   
     9     3    34 1   
    10     3    35 1   
    11     4     5 1   
    12     4    27 1   
    13     4    36 1   
    14     4    37 1   
    15     5    21 1   
    16     5    38 1   
    17     5    39 1   
    18     6     9 ar  
    19     6    21 1   
    20     6    22 ar  
    21     7    14 1   
    22     7    22 ar  
    23     7    23 ar  
    24     8     9 ar  
    25     8    10 1   
    26     8    23 ar  
    27     9    40 1   
    28    10    11 1   
    29    10    12 1   
    30    10    29 1   
    31    11    12 1   
    32    11    41 1   
    33    11    42 1   
    34    12    43 1   
    35    12    44 1   
    36    13    29 1   
    37    13    45 1   
    38    13    46 1   
    39    13    55 1   
    40    14    15 ar  
    41    14    20 ar  
    42    15    16 1   
    43    15    18 ar  
    44    16    17 2   
    45    16    47 1   
    46    17    25 1   
    47    17    48 1   
    48    18    25 1   
    49    18    26 ar  
    50    19    20 ar  
    51    19    26 ar  
    52    19    49 1   
    53    20    50 1   
    54    24    29 3   
    55    24    51 1   
    56    24    52 1   
    57    25    53 1   
    58    28    29 1   
    59    28    54 1   
@<TRIPOS>SUBSTRUCTURE
     1 VJM         1 TEMP              0 ****  ****    0 ROOT
