@<TRIPOS>MOLECULE
VJN
   31    33     1     0     0
SMALL
No Charge or Current Charge


@<TRIPOS>ATOM
      1 C4         -40.8060   -14.4250    15.4560 ca         1 VJN       0.194100
      2 C14        -40.6500   -14.0310    14.1110 ca         1 VJN      -0.228000
      3 C5         -40.0150   -13.8300    16.4460 ca         1 VJN      -0.172000
      4 C6         -39.0610   -12.8580    16.1080 ca         1 VJN      -0.009000
      5 C11        -40.2020   -13.0910    11.1910 cc         1 VJN      -0.070000
      6 C7         -38.8960   -12.4690    14.7630 ca         1 VJN      -0.210600
      7 C8         -37.8730   -11.4270    14.3950 c          1 VJN       0.584600
      8 C9         -38.5760   -11.6920    12.0790 cd         1 VJN      -0.025400
      9 C10        -39.7780   -12.4840    10.0350 cd         1 VJN      -0.250000
     10 C12        -39.5210   -12.6440    12.3570 cc         1 VJN      -0.152000
     11 C13        -39.6950   -13.0570    13.7560 ca         1 VJN       0.099000
     12 N1         -37.7960   -11.1190    13.0600 ns         1 VJN      -0.355100
     13 C3         -41.4940   -17.2730    14.3750 c3         1 VJN      -0.108100
     14 C1         -43.6030   -16.8530    15.7630 c3         1 VJN      -0.108100
     15 C2         -42.4610   -16.2140    14.9510 c3         1 VJN       0.179300
     16 O1         -41.7300   -15.3700    15.8620 os         1 VJN      -0.351100
     17 O2         -37.1500   -10.8790    15.2140 o          1 VJN      -0.551000
     18 S1         -38.4880   -11.3050    10.3520 ss         1 VJN       0.183000
     19 H1         -41.2660   -14.4710    13.3370 ha         1 VJN       0.120000
     20 H2         -40.1390   -14.1270    17.4840 ha         1 VJN       0.132000
     21 H3         -38.4530   -12.4100    16.8920 ha         1 VJN       0.138000
     22 H4         -40.9840   -13.8440    11.2150 ha         1 VJN       0.136000
     23 H5         -40.1320   -12.6450     9.0240 h4         1 VJN       0.154000
     24 H6         -37.1050   -10.4170    12.8250 hn         1 VJN       0.335500
     25 H7         -40.7030   -16.8090    13.7760 hc         1 VJN       0.048367
     26 H8         -41.0230   -17.8480    15.1810 hc         1 VJN       0.048367
     27 H9         -42.0370   -17.9720    13.7280 hc         1 VJN       0.048367
     28 H10        -44.2650   -16.0780    16.1680 hc         1 VJN       0.048367
     29 H11        -44.2020   -17.5150    15.1280 hc         1 VJN       0.048367
     30 H12        -43.2060   -17.4420    16.5990 hc         1 VJN       0.048367
     31 H13        -42.9100   -15.6290    14.1380 h1         1 VJN       0.043700
@<TRIPOS>BOND
     1     1     2 ar  
     2     1     3 ar  
     3     1    16 1   
     4     2    11 ar  
     5     2    19 1   
     6     3     4 ar  
     7     3    20 1   
     8     4     6 ar  
     9     4    21 1   
    10     5     9 2   
    11     5    10 1   
    12     5    22 1   
    13     6     7 1   
    14     6    11 ar  
    15     7    12 1   
    16     7    17 2   
    17     8    10 2   
    18     8    12 1   
    19     8    18 1   
    20     9    18 1   
    21     9    23 1   
    22    10    11 1   
    23    12    24 1   
    24    13    15 1   
    25    13    25 1   
    26    13    26 1   
    27    13    27 1   
    28    14    15 1   
    29    14    28 1   
    30    14    29 1   
    31    14    30 1   
    32    15    16 1   
    33    15    31 1   
@<TRIPOS>SUBSTRUCTURE
     1 VJN         1 TEMP              0 ****  ****    0 ROOT
