@<TRIPOS>MOLECULE
VJN
   31    33     1     0     0
SMALL
abcg2


@<TRIPOS>ATOM
      1 C4         -40.7430   -14.4930    15.4270 ca         1 VJN       0.194100
      2 C14        -40.5960   -14.1220    14.0980 ca         1 VJN      -0.228000
      3 C5         -39.9780   -13.8480    16.4180 ca         1 VJN      -0.172000
      4 C6         -39.0950   -12.8590    16.0700 ca         1 VJN      -0.009000
      5 C11        -40.1460   -13.1530    11.1780 cc         1 VJN      -0.070000
      6 C7         -38.9360   -12.4680    14.7350 ca         1 VJN      -0.210600
      7 C8         -37.9820   -11.4030    14.4190 c          1 VJN       0.584600
      8 C9         -38.6200   -11.6870    12.1160 cd         1 VJN      -0.025400
      9 C10        -39.7130   -12.5020    10.0740 cd         1 VJN      -0.250000
     10 C12        -39.5200   -12.6900    12.3770 cc         1 VJN      -0.152000
     11 C13        -39.6970   -13.1100    13.7430 ca         1 VJN       0.099000
     12 N1         -37.8880   -11.0740    13.0880 ns         1 VJN      -0.355100
     13 C3         -41.5830   -17.2960    14.3180 c3         1 VJN      -0.108100
     14 C1         -43.5350   -16.7530    15.8100 c3         1 VJN      -0.108100
     15 C2         -42.3970   -16.1960    14.9790 c3         1 VJN       0.179300
     16 O1         -41.5830   -15.4290    15.8760 os         1 VJN      -0.351100
     17 O2         -37.3010   -10.8190    15.2490 o          1 VJN      -0.551000
     18 S1         -38.5260   -11.3000    10.4440 ss         1 VJN       0.183000
     19 H1         -41.1710   -14.6030    13.3190 ha         1 VJN       0.120000
     20 H2         -40.0970   -14.1420    17.4530 ha         1 VJN       0.132000
     21 H3         -38.5130   -12.3720    16.8410 ha         1 VJN       0.138000
     22 H4         -40.8880   -13.9380    11.1410 ha         1 VJN       0.136000
     23 H5         -40.0160   -12.6500     9.0490 h4         1 VJN       0.154000
     24 H6         -37.2380   -10.3380    12.8470 hn         1 VJN       0.335500
     25 H7         -40.7520   -16.9060    13.7310 hc         1 VJN       0.048367
     26 H8         -41.1820   -17.9810    15.0670 hc         1 VJN       0.048367
     27 H9         -42.2210   -17.8680    13.6450 hc         1 VJN       0.048367
     28 H10        -44.1150   -15.9550    16.2750 hc         1 VJN       0.048367
     29 H11        -44.2060   -17.3260    15.1730 hc         1 VJN       0.048367
     30 H12        -43.1640   -17.4160    16.5930 hc         1 VJN       0.048367
     31 H13        -42.8180   -15.5320    14.2160 h1         1 VJN       0.043700
@<TRIPOS>BOND
     1     1     2 ar  
     2     1     3 ar  
     3     1    16 1   
     4     2    11 ar  
     5     2    19 1   
     6     3     4 ar  
     7     3    20 1   
     8     4     6 ar  
     9     4    21 1   
    10     5     9 2   
    11     5    10 1   
    12     5    22 1   
    13     6     7 1   
    14     6    11 ar  
    15     7    12 1   
    16     7    17 2   
    17     8    10 2   
    18     8    12 1   
    19     8    18 1   
    20     9    18 1   
    21     9    23 1   
    22    10    11 1   
    23    12    24 1   
    24    13    15 1   
    25    13    25 1   
    26    13    26 1   
    27    13    27 1   
    28    14    15 1   
    29    14    28 1   
    30    14    29 1   
    31    14    30 1   
    32    15    16 1   
    33    15    31 1   
@<TRIPOS>SUBSTRUCTURE
     1 VJN         1 TEMP              0 ****  ****    0 ROOT
