@<TRIPOS>MOLECULE
VJO
   26    27     1     0     0
SMALL
abcg2


@<TRIPOS>ATOM
      1 C7          39.2610    28.6210    27.7210 c6         1 VJO       0.119600
      2 C8          38.8280    29.4600    26.5440 c6         1 VJO       0.118600
      3 O1          44.4930    23.2960    24.2780 o          1 VJO      -0.533000
      4 C1          42.1360    26.2500    24.7780 ca         1 VJO       0.231000
      5 C5          40.7830    27.5980    26.2500 ca         1 VJO       0.072100
      6 C6          41.8900    26.7860    26.0390 ca         1 VJO      -0.140000
      7 C4          39.9040    27.8670    25.1920 ca         1 VJO       0.059100
      8 C3          40.1500    27.3110    23.9420 ca         1 VJO      -0.094000
      9 O3          38.8030    28.6620    25.3510 os         1 VJO      -0.332100
     10 C2          41.2640    26.5130    23.7240 ca         1 VJO      -0.087000
     11 S           43.1440    23.8120    24.2960 s6         1 VJO       1.209100
     12 O           42.3120    23.6360    23.1300 o          1 VJO      -0.533000
     13 C           42.2860    23.1390    25.6970 c3         1 VJO      -0.386100
     14 N           43.2980    25.4410    24.5720 nu         1 VJO      -0.868100
     15 O2          40.5860    28.1100    27.5020 os         1 VJO      -0.336100
     16 H1          39.3070    29.2160    28.6310 h1         1 VJO       0.071700
     17 H2          38.5740    27.7820    27.8660 h1         1 VJO       0.071700
     18 H3          39.5140    30.3000    26.4000 h1         1 VJO       0.072200
     19 H4          37.8160    29.8370    26.6840 h1         1 VJO       0.072200
     20 H5          42.5500    26.5700    26.8700 ha         1 VJO       0.128000
     21 H6          39.4640    27.5320    23.1340 ha         1 VJO       0.138000
     22 H7          41.4600    26.1010    22.7460 ha         1 VJO       0.153000
     23 H8          42.8840    23.3260    26.5870 h1         1 VJO       0.103033
     24 H9          41.3120    23.6190    25.7710 h1         1 VJO       0.103033
     25 H10         42.1740    22.0710    25.5200 h1         1 VJO       0.103033
     26 H11         44.0390    25.6070    25.2450 hn         1 VJO       0.485000
@<TRIPOS>BOND
     1     1     2 1   
     2     1    15 1   
     3     1    16 1   
     4     1    17 1   
     5     2     9 1   
     6     2    18 1   
     7     2    19 1   
     8     3    11 2   
     9     4     6 ar  
    10     4    10 ar  
    11     4    14 1   
    12     5     6 ar  
    13     5     7 ar  
    14     5    15 1   
    15     6    20 1   
    16     7     8 ar  
    17     7     9 1   
    18     8    10 ar  
    19     8    21 1   
    20    10    22 1   
    21    11    12 2   
    22    11    13 1   
    23    11    14 1   
    24    13    23 1   
    25    13    24 1   
    26    13    25 1   
    27    14    26 1   
@<TRIPOS>SUBSTRUCTURE
     1 VJO         1 TEMP              0 ****  ****    0 ROOT
