@<TRIPOS>MOLECULE
VJO
   26    27     1     0     0
SMALL
No Charge or Current Charge


@<TRIPOS>ATOM
      1 C7          39.4260    29.1990    27.7580 c6         1 VJO       0.119600
      2 C8          38.7280    29.6460    26.4550 c6         1 VJO       0.118600
      3 O1          44.8010    23.4490    24.6940 o          1 VJO      -0.533000
      4 C1          42.0660    26.1100    25.1230 ca         1 VJO       0.231000
      5 C5          40.8150    27.7970    26.3650 ca         1 VJO       0.072100
      6 C6          41.9580    26.9980    26.2080 ca         1 VJO      -0.140000
      7 C4          39.7700    27.7340    25.4110 ca         1 VJO       0.059100
      8 C3          39.8700    26.8480    24.3290 ca         1 VJO      -0.094000
      9 O3          38.6530    28.5360    25.5320 os         1 VJO      -0.332100
     10 C2          41.0140    26.0410    24.1830 ca         1 VJO      -0.087000
     11 S           43.4850    23.8960    24.2350 s6         1 VJO       1.209100
     12 O           43.2350    24.1420    22.8140 o          1 VJO      -0.533000
     13 C           42.2460    22.7920    24.8790 c3         1 VJO      -0.386100
     14 N           43.2250    25.3370    25.0220 nu         1 VJO      -0.868100
     15 O2          40.7250    28.6410    27.4540 os         1 VJO      -0.336100
     16 H1          39.5450    30.0470    28.4460 h1         1 VJO       0.071700
     17 H2          38.8160    28.4320    28.2560 h1         1 VJO       0.071700
     18 H3          39.3040    30.4580    25.9910 h1         1 VJO       0.072200
     19 H4          37.7150    30.0160    26.6640 h1         1 VJO       0.072200
     20 H5          42.7570    27.0630    26.9420 ha         1 VJO       0.128000
     21 H6          39.0680    26.7950    23.5960 ha         1 VJO       0.138000
     22 H7          41.0740    25.3760    23.3280 ha         1 VJO       0.153000
     23 H8          42.3860    22.7340    25.9630 h1         1 VJO       0.103033
     24 H9          41.2640    23.2040    24.6250 h1         1 VJO       0.103033
     25 H10         42.4000    21.8170    24.4060 h1         1 VJO       0.103033
     26 H11         43.8850    25.3560    25.7890 hn         1 VJO       0.485000
@<TRIPOS>BOND
     1     1     2 1   
     2     1    15 1   
     3     1    16 1   
     4     1    17 1   
     5     2     9 1   
     6     2    18 1   
     7     2    19 1   
     8     3    11 2   
     9     4     6 ar  
    10     4    10 ar  
    11     4    14 1   
    12     5     6 ar  
    13     5     7 ar  
    14     5    15 1   
    15     6    20 1   
    16     7     8 ar  
    17     7     9 1   
    18     8    10 ar  
    19     8    21 1   
    20    10    22 1   
    21    11    12 2   
    22    11    13 1   
    23    11    14 1   
    24    13    23 1   
    25    13    24 1   
    26    13    25 1   
    27    14    26 1   
@<TRIPOS>SUBSTRUCTURE
     1 VJO         1 TEMP              0 ****  ****    0 ROOT
