@<TRIPOS>MOLECULE
VJP
   31    32     1     0     0
SMALL
No Charge or Current Charge


@<TRIPOS>ATOM
      1 C           -3.6000    -0.7870     0.0950 ca         1 VJP       0.382000
      2 N           -4.7770    -1.4740     0.1460 nv         1 VJP      -1.098000
      3 O            0.4110     2.2300    -1.3800 o          1 VJP      -0.532500
      4 S            0.3820     1.5210    -0.0940 sy         1 VJP       1.177300
      5 C1          -3.0850    -0.2000     1.2550 ca         1 VJP      -0.223000
      6 N1           1.5420     0.2440    -0.1810 n          1 VJP      -0.475200
      7 O1           0.5740     2.2480     1.1680 o          1 VJP      -0.532500
      8 C2          -1.8720     0.5080     1.2100 ca         1 VJP       0.053000
      9 C3          -1.1770     0.6240    -0.0100 ca         1 VJP      -0.360500
     10 C4          -1.6990     0.0320    -1.1770 ca         1 VJP       0.053000
     11 C5          -2.9120    -0.6740    -1.1170 ca         1 VJP      -0.223000
     12 C6           2.2110    -0.0130    -1.4870 c6         1 VJP       0.118000
     13 C7           3.4220    -0.9670    -1.4300 c6         1 VJP      -0.092400
     14 C8           3.1210    -2.1870    -0.5480 c6         1 VJP      -0.070400
     15 C9           2.7960    -1.6960     0.8740 c6         1 VJP      -0.157400
     16 C10          1.7170    -0.6020     0.9300 c          1 VJP       0.584000
     17 HN          -5.1670    -1.7190     1.0540 hn         1 VJP       0.476500
     18 HNA         -5.0460    -2.0590    -0.6420 hn         1 VJP       0.476500
     19 H1          -3.6190    -0.2880     2.1960 ha         1 VJP       0.116000
     20 H2          -1.4800     0.9550     2.1220 ha         1 VJP       0.134000
     21 H4          -1.1710     0.1130    -2.1270 ha         1 VJP       0.134000
     22 H5          -3.3120    -1.1290    -2.0180 ha         1 VJP       0.116000
     23 H6           1.4650    -0.4410    -2.1710 h1         1 VJP       0.060200
     24 H6A          2.5430     0.9380    -1.9300 h1         1 VJP       0.060200
     25 H7           3.6910    -1.2870    -2.4450 hc         1 VJP       0.055700
     26 H7A          4.2940    -0.4290    -1.0320 hc         1 VJP       0.055700
     27 H8           2.2730    -2.7530    -0.9580 hc         1 VJP       0.050700
     28 H8A          3.9840    -2.8670    -0.5290 hc         1 VJP       0.050700
     29 H9           2.5370    -2.5130     1.5600 hc         1 VJP       0.076200
     30 H9A          3.7070    -1.2300     1.2730 hc         1 VJP       0.076200
     31 O2           1.0300    -0.5160     1.9370 o          1 VJP      -0.539000
@<TRIPOS>BOND
     1     1     2 1   
     2     1     5 ar  
     3     1    11 ar  
     4     2    17 1   
     5     2    18 1   
     6     3     4 2   
     7     4     6 1   
     8     4     7 2   
     9     4     9 1   
    10     5     8 ar  
    11     5    19 1   
    12     6    12 1   
    13     6    16 1   
    14     8     9 ar  
    15     8    20 1   
    16     9    10 ar  
    17    10    11 ar  
    18    10    21 1   
    19    11    22 1   
    20    12    13 1   
    21    12    23 1   
    22    12    24 1   
    23    13    14 1   
    24    13    25 1   
    25    13    26 1   
    26    14    15 1   
    27    14    27 1   
    28    14    28 1   
    29    15    16 1   
    30    15    29 1   
    31    15    30 1   
    32    16    31 2   
@<TRIPOS>SUBSTRUCTURE
     1 VJP         1 TEMP              0 ****  ****    0 ROOT
