@<TRIPOS>MOLECULE
VJP
   31    32     1     0     0
SMALL
bcc


@<TRIPOS>ATOM
      1 C           -3.6240    -0.7850     0.1800 ca         1 VJP       0.243600
      2 N           -4.8310    -1.3930     0.2630 nv         1 VJP      -0.849200
      3 O            0.3850     2.0030    -1.4920 o          1 VJP      -0.603300
      4 S            0.3430     1.3870    -0.1740 sy         1 VJP       1.318900
      5 C1          -3.0780    -0.1120     1.2880 ca         1 VJP      -0.241000
      6 N1           1.5470     0.1740    -0.2510 n          1 VJP      -0.542200
      7 O1           0.5810     2.2190     0.9900 o          1 VJP      -0.603300
      8 C2          -1.8650     0.5350     1.1940 ca         1 VJP       0.035000
      9 C3          -1.1730     0.5370    -0.0130 ca         1 VJP      -0.360500
     10 C4          -1.6990    -0.1170    -1.1250 ca         1 VJP       0.035000
     11 C5          -2.9040    -0.7770    -1.0290 ca         1 VJP      -0.241000
     12 C6           2.3230     0.0590    -1.5010 c6         1 VJP       0.118000
     13 C7           3.5510    -0.8070    -1.3090 c6         1 VJP      -0.092400
     14 C8           3.1730    -2.1110    -0.6340 c6         1 VJP      -0.070400
     15 C9           2.6530    -1.7960     0.7560 c6         1 VJP      -0.157400
     16 C10          1.6370    -0.6830     0.8210 c          1 VJP       0.726500
     17 HN          -5.2290    -1.5690     1.1690 hn         1 VJP       0.421300
     18 HNA         -5.0960    -2.0490    -0.4520 hn         1 VJP       0.421300
     19 H1          -3.6140    -0.1070     2.2280 ha         1 VJP       0.134000
     20 H2          -1.4640     1.0380     2.0620 ha         1 VJP       0.152000
     21 H4          -1.1770    -0.1160    -2.0730 ha         1 VJP       0.152000
     22 H5          -3.3060    -1.2860    -1.8960 ha         1 VJP       0.134000
     23 H6           1.6900    -0.3720    -2.2790 h1         1 VJP       0.060200
     24 H6A          2.6230     1.0540    -1.8220 h1         1 VJP       0.060200
     25 H7           3.9890    -0.9750    -2.2940 hc         1 VJP       0.055700
     26 H7A          4.2960    -0.2790    -0.7090 hc         1 VJP       0.055700
     27 H8           2.4090    -2.6280    -1.2220 hc         1 VJP       0.050700
     28 H8A          4.0280    -2.7830    -0.5640 hc         1 VJP       0.050700
     29 H9           2.2030    -2.6670     1.2360 hc         1 VJP       0.076200
     30 H9A          3.4830    -1.4850     1.3990 hc         1 VJP       0.076200
     31 O2           0.9290    -0.5280     1.7960 o          1 VJP      -0.614500
@<TRIPOS>BOND
     1     1     2 1   
     2     1     5 ar  
     3     1    11 ar  
     4     2    17 1   
     5     2    18 1   
     6     3     4 2   
     7     4     6 1   
     8     4     7 2   
     9     4     9 1   
    10     5     8 ar  
    11     5    19 1   
    12     6    12 1   
    13     6    16 1   
    14     8     9 ar  
    15     8    20 1   
    16     9    10 ar  
    17    10    11 ar  
    18    10    21 1   
    19    11    22 1   
    20    12    13 1   
    21    12    23 1   
    22    12    24 1   
    23    13    14 1   
    24    13    25 1   
    25    13    26 1   
    26    14    15 1   
    27    14    27 1   
    28    14    28 1   
    29    15    16 1   
    30    15    29 1   
    31    15    30 1   
    32    16    31 2   
@<TRIPOS>SUBSTRUCTURE
     1 VJP         1 TEMP              0 ****  ****    0 ROOT
