@<TRIPOS>MOLECULE
VJQ
   39    41     1     0     0
SMALL
abcg2


@<TRIPOS>ATOM
      1 C4         -24.4140   -20.3470    -3.1070 c          1 VJQ       0.584600
      2 C7         -24.8060   -22.7270    -3.4490 cc         1 VJQ      -0.186600
      3 C8         -23.8040   -23.7560    -3.0010 c3         1 VJQ       0.250800
      4 C10        -25.1150   -25.1170    -1.3870 ca         1 VJQ      -0.093500
      5 C13        -23.4660   -24.4770     0.7380 ca         1 VJQ      -0.110500
      6 C15        -25.4670   -22.8170    -4.6170 cd         1 VJQ       0.321100
      7 C20        -24.0250   -19.2270    -7.1950 ca         1 VJQ      -0.062000
      8 O16        -25.6410   -23.9250    -5.3480 oh         1 VJQ      -0.552100
      9 N17        -25.9480   -21.6900    -5.2500 na         1 VJQ      -0.808000
     10 C18        -25.0340   -20.6720    -5.5470 ca         1 VJQ       0.309000
     11 C3         -24.1730   -20.1550    -4.5680 ca         1 VJQ      -0.182600
     12 C19        -24.9690   -20.1760    -6.8500 ca         1 VJQ      -0.166000
     13 C1         -23.1230   -18.7570    -6.2470 ca         1 VJQ      -0.139000
     14 C2         -23.2210   -19.2020    -4.9440 ca         1 VJQ      -0.041000
     15 N6         -24.9140   -21.5310    -2.6910 n          1 VJQ      -0.305000
     16 C23        -25.5190   -21.5850    -1.3660 c3         1 VJQ       0.103300
     17 O5         -24.2490   -19.4070    -2.3420 o          1 VJQ      -0.552000
     18 C9         -24.0200   -24.2830    -1.6000 ca         1 VJQ      -0.083300
     19 C14        -23.1920   -23.9700    -0.5280 ca         1 VJQ      -0.093500
     20 C12        -24.5630   -25.3000     0.9450 ca         1 VJQ      -0.104000
     21 C11        -25.3880   -25.6210    -0.1260 ca         1 VJQ      -0.110500
     22 O18        -22.4910   -23.2090    -3.0470 os         1 VJQ      -0.222000
     23 H2         -23.8410   -24.6210    -3.6760 h1         1 VJQ       0.057700
     24 H3         -25.7650   -25.3700    -2.2170 ha         1 VJQ       0.116000
     25 H4         -22.8160   -24.2230     1.5650 ha         1 VJQ       0.115000
     26 H5         -23.9820   -18.8670    -8.2150 ha         1 VJQ       0.118000
     27 H6         -26.6190   -21.8750    -5.9840 hn         1 VJQ       0.484000
     28 H7         -25.6520   -20.5600    -7.5980 ha         1 VJQ       0.118000
     29 H8         -22.3700   -18.0300    -6.5190 ha         1 VJQ       0.123000
     30 H9         -22.5630   -18.7960    -4.1870 ha         1 VJQ       0.137000
     31 H10        -26.1360   -20.7030    -1.2010 h1         1 VJQ       0.044700
     32 H11        -26.1550   -22.4650    -1.3120 h1         1 VJQ       0.044700
     33 H12        -24.7810   -21.6440    -0.5670 h1         1 VJQ       0.044700
     34 H13        -22.3360   -23.3230    -0.6570 ha         1 VJQ       0.116000
     35 H14        -24.7730   -25.6920     1.9320 ha         1 VJQ       0.115000
     36 H15        -26.2440   -26.2670     0.0210 ha         1 VJQ       0.115000
     37 H16        -22.3860   -22.0970    -4.5600 ho         1 VJQ       0.448000
     38 H1         -25.6590   -24.7140    -4.7930 ho         1 VJQ       0.488000
     39 O17        -22.1270   -23.0150    -4.3870 oh         1 VJQ      -0.441000
@<TRIPOS>BOND
     1     1    11 1   
     2     1    15 1   
     3     1    17 2   
     4     2     3 1   
     5     2     6 2   
     6     2    15 1   
     7     3    18 1   
     8     3    22 1   
     9     3    23 1   
    10     4    18 ar  
    11     4    21 ar  
    12     4    24 1   
    13     5    19 ar  
    14     5    20 ar  
    15     5    25 1   
    16     6     8 1   
    17     6     9 1   
    18     7    12 ar  
    19     7    13 ar  
    20     7    26 1   
    21     8    38 1   
    22     9    10 1   
    23     9    27 1   
    24    10    11 ar  
    25    10    12 ar  
    26    11    14 ar  
    27    12    28 1   
    28    13    14 ar  
    29    13    29 1   
    30    14    30 1   
    31    15    16 1   
    32    16    31 1   
    33    16    32 1   
    34    16    33 1   
    35    18    19 ar  
    36    19    34 1   
    37    20    21 ar  
    38    20    35 1   
    39    21    36 1   
    40    22    39 1   
    41    37    39 1   
@<TRIPOS>SUBSTRUCTURE
     1 VJQ         1 TEMP              0 ****  ****    0 ROOT
