@<TRIPOS>MOLECULE
VJQ
   39    41     1     0     0
SMALL
No Charge or Current Charge


@<TRIPOS>ATOM
      1 C4         -24.5020   -19.8400    -3.3670 c          1 VJQ       0.584600
      2 C7         -24.3210   -22.3460    -3.2100 cc         1 VJQ      -0.186600
      3 C8         -23.4020   -23.3550    -2.5070 c3         1 VJQ       0.250800
      4 C10        -25.4920   -24.3220    -1.3280 ca         1 VJQ      -0.093500
      5 C13        -23.8910   -26.1090     0.1320 ca         1 VJQ      -0.110500
      6 C15        -25.0120   -22.7560    -4.3520 cd         1 VJQ       0.321100
      7 C20        -24.4670   -19.9100    -7.6820 ca         1 VJQ      -0.062000
      8 O16        -25.0970   -24.0000    -4.8310 oh         1 VJQ      -0.552100
      9 N17        -25.8860   -21.8650    -4.9040 na         1 VJQ      -0.808000
     10 C18        -25.1480   -20.9010    -5.5590 ca         1 VJQ       0.309000
     11 C3         -24.4850   -19.8850    -4.8610 ca         1 VJQ      -0.182600
     12 C19        -25.1400   -20.9120    -6.9640 ca         1 VJQ      -0.166000
     13 C1         -23.8170   -18.8790    -6.9880 ca         1 VJQ      -0.139000
     14 C2         -23.8320   -18.8600    -5.5840 ca         1 VJQ      -0.041000
     15 N6         -24.5110   -21.0560    -2.6250 n          1 VJQ      -0.305000
     16 C23        -24.5700   -20.9020    -1.1460 c3         1 VJQ       0.103300
     17 O5         -24.5010   -18.7530    -2.7980 o          1 VJQ      -0.552000
     18 C9         -24.0890   -24.3040    -1.5120 ca         1 VJQ      -0.083300
     19 C14        -23.2990   -25.2130    -0.7750 ca         1 VJQ      -0.093500
     20 C12        -25.2830   -26.1100     0.3120 ca         1 VJQ      -0.104000
     21 C11        -26.0820   -25.2170    -0.4190 ca         1 VJQ      -0.110500
     22 O18        -22.3210   -22.6690    -1.8350 os         1 VJQ      -0.222000
     23 H2         -22.9560   -23.9950    -3.2800 h1         1 VJQ       0.057700
     24 H3         -26.1360   -23.6420    -1.8790 ha         1 VJQ       0.116000
     25 H4         -23.2690   -26.8020     0.6950 ha         1 VJQ       0.115000
     26 H5         -24.4620   -19.9260    -8.7700 ha         1 VJQ       0.118000
     27 H6         -26.7540   -22.1990    -5.3050 hn         1 VJQ       0.484000
     28 H7         -25.6600   -21.6990    -7.5030 ha         1 VJQ       0.118000
     29 H8         -23.3030   -18.0930    -7.5380 ha         1 VJQ       0.123000
     30 H9         -23.3260   -18.0530    -5.0560 ha         1 VJQ       0.137000
     31 H10        -25.3980   -20.2350    -0.8740 h1         1 VJQ       0.044700
     32 H11        -24.7400   -21.8640    -0.6520 h1         1 VJQ       0.044700
     33 H12        -23.6290   -20.4740    -0.7780 h1         1 VJQ       0.044700
     34 H13        -22.2190   -25.2260    -0.9070 ha         1 VJQ       0.116000
     35 H14        -25.7410   -26.8030     1.0140 ha         1 VJQ       0.115000
     36 H15        -27.1610   -25.2190    -0.2830 ha         1 VJQ       0.115000
     37 H16        -21.8180   -21.1750    -2.9330 ho         1 VJQ       0.448000
     38 H1         -24.6220   -24.5810    -4.2060 ho         1 VJQ       0.488000
     39 O17        -21.4060   -22.0600    -2.8220 oh         1 VJQ      -0.441000
@<TRIPOS>BOND
     1     1    11 1   
     2     1    15 1   
     3     1    17 2   
     4     2     3 1   
     5     2     6 2   
     6     2    15 1   
     7     3    18 1   
     8     3    22 1   
     9     3    23 1   
    10     4    18 ar  
    11     4    21 ar  
    12     4    24 1   
    13     5    19 ar  
    14     5    20 ar  
    15     5    25 1   
    16     6     8 1   
    17     6     9 1   
    18     7    12 ar  
    19     7    13 ar  
    20     7    26 1   
    21     8    38 1   
    22     9    10 1   
    23     9    27 1   
    24    10    11 ar  
    25    10    12 ar  
    26    11    14 ar  
    27    12    28 1   
    28    13    14 ar  
    29    13    29 1   
    30    14    30 1   
    31    15    16 1   
    32    16    31 1   
    33    16    32 1   
    34    16    33 1   
    35    18    19 ar  
    36    19    34 1   
    37    20    21 ar  
    38    20    35 1   
    39    21    36 1   
    40    22    39 1   
    41    37    39 1   
@<TRIPOS>SUBSTRUCTURE
     1 VJQ         1 TEMP              0 ****  ****    0 ROOT
