@<TRIPOS>MOLECULE
VJS
   39    40     1     0     0
SMALL
abcg2


@<TRIPOS>ATOM
      1 C12         -1.6090   -33.0750    20.6700 c          1 VJS       0.739000
      2 C15          2.1150   -32.5900    21.8810 ca         1 VJS      -0.137600
      3 C16          2.2380   -32.7570    23.2600 ca         1 VJS      -0.068000
      4 C17          2.9400   -31.8420    24.0270 ca         1 VJS      -0.139500
      5 C18          2.7250   -31.4770    21.2980 ca         1 VJS      -0.068000
      6 C19          3.4160   -30.5600    22.0670 ca         1 VJS      -0.139500
      7 C20          3.5420   -30.7260    23.4480 ca         1 VJS      -0.020300
      8 C21          4.2430   -29.7110    24.2950 c3         1 VJS      -0.178100
      9 C22          3.2030   -28.6810    24.8280 c          1 VJS       0.729000
     10 C02          1.3930   -33.5580    21.0060 c          1 VJS       0.634700
     11 C03          0.7300   -34.7600    21.6300 c5         1 VJS      -0.146700
     12 C04          1.7340   -35.9280    21.6740 c5         1 VJS      -0.080400
     13 C05          0.8670   -37.1870    21.8350 c5         1 VJS      -0.078400
     14 C06         -0.5580   -36.7700    21.4250 c5         1 VJS      -0.079400
     15 C07         -0.4670   -35.3410    20.8670 c5         1 VJS       0.003300
     16 C08         -1.7760   -34.5690    21.0340 c3         1 VJS      -0.302700
     17 C09         -2.9520   -35.1700    20.2420 c          1 VJS       0.739000
     18 O10         -4.0930   -34.9070    20.6830 o          1 VJS      -0.768750
     19 O11         -2.7000   -35.8520    19.2250 o          1 VJS      -0.768750
     20 O13         -1.9400   -32.7200    19.5210 o          1 VJS      -0.768750
     21 O14         -1.1290   -32.3360    21.5590 o          1 VJS      -0.768750
     22 O23          2.8660   -28.7970    26.0200 o          1 VJS      -0.735000
     23 O24          2.7850   -27.8550    23.9950 o          1 VJS      -0.735000
     24 H1           1.7910   -33.6090    23.7550 ha         1 VJS       0.106000
     25 H2           3.0250   -31.9980    25.0960 ha         1 VJS       0.094000
     26 H3           2.6520   -31.3280    20.2290 ha         1 VJS       0.106000
     27 H4           3.8790   -29.7040    21.5910 ha         1 VJS       0.094000
     28 H5           4.7480   -30.2070    25.1240 hc         1 VJS       0.011200
     29 H6           4.9980   -29.1950    23.6980 hc         1 VJS       0.011200
     30 H7           0.4060   -34.5330    22.6490 hc         1 VJS       0.070700
     31 H8           2.2870   -35.9680    20.7320 hc         1 VJS       0.016700
     32 H9           2.4710   -35.8130    22.4700 hc         1 VJS       0.016700
     33 H10          0.8870   -37.5410    22.8660 hc         1 VJS      -0.002300
     34 H11          1.2500   -38.0020    21.2200 hc         1 VJS      -0.002300
     35 H12         -1.2120   -36.7710    22.3020 hc         1 VJS       0.037700
     36 H13         -1.0060   -37.4500    20.7020 hc         1 VJS       0.037700
     37 H14         -0.2110   -35.3910    19.8050 hc         1 VJS       0.072700
     38 H15         -2.0310   -34.6120    22.1010 hc         1 VJS       0.013700
     39 O01          1.4370   -33.4260    19.7980 o          1 VJS      -0.546100
@<TRIPOS>BOND
     1     1    16 1   
     2     1    20 1   
     3     1    21 1   
     4     2     3 ar  
     5     2     5 ar  
     6     2    10 1   
     7     3     4 ar  
     8     3    24 1   
     9     4     7 ar  
    10     4    25 1   
    11     5     6 ar  
    12     5    26 1   
    13     6     7 ar  
    14     6    27 1   
    15     7     8 1   
    16     8     9 1   
    17     8    28 1   
    18     8    29 1   
    19     9    22 1   
    20     9    23 1   
    21    10    11 1   
    22    10    39 2   
    23    11    12 1   
    24    11    15 1   
    25    11    30 1   
    26    12    13 1   
    27    12    31 1   
    28    12    32 1   
    29    13    14 1   
    30    13    33 1   
    31    13    34 1   
    32    14    15 1   
    33    14    35 1   
    34    14    36 1   
    35    15    16 1   
    36    15    37 1   
    37    16    17 1   
    38    16    38 1   
    39    17    18 1   
    40    17    19 1   
@<TRIPOS>SUBSTRUCTURE
     1 VJS         1 TEMP              0 ****  ****    0 ROOT
