@<TRIPOS>MOLECULE
VJS
   39    40     1     0     0
SMALL
No Charge or Current Charge


@<TRIPOS>ATOM
      1 C12         -1.4440   -32.8580    20.9610 c          1 VJS       0.739000
      2 C15          2.3700   -32.8560    21.8340 ca         1 VJS      -0.137600
      3 C16          2.7410   -32.9960    23.1910 ca         1 VJS      -0.068000
      4 C17          3.2800   -31.9080    23.8990 ca         1 VJS      -0.139500
      5 C18          2.5730   -31.6120    21.2020 ca         1 VJS      -0.068000
      6 C19          3.1120   -30.5260    21.9130 ca         1 VJS      -0.139500
      7 C20          3.4670   -30.6640    23.2670 ca         1 VJS      -0.020300
      8 C21          4.0670   -29.4890    24.0350 c3         1 VJS      -0.178100
      9 C22          2.9470   -28.6800    24.7160 c          1 VJS       0.729000
     10 C02          1.8180   -34.0120    21.0260 c          1 VJS       0.634700
     11 C03          0.8170   -34.8820    21.8500 c5         1 VJS      -0.146700
     12 C04          1.4900   -36.2580    22.1940 c5         1 VJS      -0.080400
     13 C05          0.7740   -37.2660    21.2630 c5         1 VJS      -0.078400
     14 C06         -0.6750   -36.7380    21.3400 c5         1 VJS      -0.079400
     15 C07         -0.4510   -35.2410    20.9880 c5         1 VJS       0.003300
     16 C08         -1.6900   -34.3330    21.2490 c3         1 VJS      -0.302700
     17 C09         -2.9220   -34.7400    20.4490 c          1 VJS       0.739000
     18 O10         -3.9470   -34.9850    21.0690 o          1 VJS      -0.768750
     19 O11         -2.8410   -34.8740    19.2370 o          1 VJS      -0.768750
     20 O13         -0.9710   -32.5240    19.8850 o          1 VJS      -0.768750
     21 O14         -1.6640   -32.0600    21.8590 o          1 VJS      -0.768750
     22 O23          2.5780   -29.0270    25.8290 o          1 VJS      -0.735000
     23 O24          2.4050   -27.7910    24.0750 o          1 VJS      -0.735000
     24 H1           2.6320   -33.9500    23.7020 ha         1 VJS       0.106000
     25 H2           3.5590   -32.0350    24.9420 ha         1 VJS       0.094000
     26 H3           2.3070   -31.4840    20.1540 ha         1 VJS       0.106000
     27 H4           3.2540   -29.5740    21.4080 ha         1 VJS       0.094000
     28 H5           4.7410   -29.9120    24.7910 hc         1 VJS       0.011200
     29 H6           4.5940   -28.8640    23.3030 hc         1 VJS       0.011200
     30 H7           0.5410   -34.3660    22.7760 hc         1 VJS       0.070700
     31 H8           2.5760   -36.2560    22.0460 hc         1 VJS       0.016700
     32 H9           1.3180   -36.5170    23.2460 hc         1 VJS       0.016700
     33 H10          0.8650   -38.2980    21.6190 hc         1 VJS      -0.002300
     34 H11          1.1700   -37.2310    20.2400 hc         1 VJS      -0.002300
     35 H12         -1.1050   -36.8690    22.3410 hc         1 VJS       0.037700
     36 H13         -1.3370   -37.2410    20.6270 hc         1 VJS       0.037700
     37 H14         -0.2270   -35.1650    19.9170 hc         1 VJS       0.072700
     38 H15         -1.9700   -34.4030    22.3090 hc         1 VJS       0.013700
     39 O01          2.1890   -34.2330    19.8760 o          1 VJS      -0.546100
@<TRIPOS>BOND
     1     1    16 1   
     2     1    20 1   
     3     1    21 1   
     4     2     3 ar  
     5     2     5 ar  
     6     2    10 1   
     7     3     4 ar  
     8     3    24 1   
     9     4     7 ar  
    10     4    25 1   
    11     5     6 ar  
    12     5    26 1   
    13     6     7 ar  
    14     6    27 1   
    15     7     8 1   
    16     8     9 1   
    17     8    28 1   
    18     8    29 1   
    19     9    22 1   
    20     9    23 1   
    21    10    11 1   
    22    10    39 2   
    23    11    12 1   
    24    11    15 1   
    25    11    30 1   
    26    12    13 1   
    27    12    31 1   
    28    12    32 1   
    29    13    14 1   
    30    13    33 1   
    31    13    34 1   
    32    14    15 1   
    33    14    35 1   
    34    14    36 1   
    35    15    16 1   
    36    15    37 1   
    37    16    17 1   
    38    16    38 1   
    39    17    18 1   
    40    17    19 1   
@<TRIPOS>SUBSTRUCTURE
     1 VJS         1 TEMP              0 ****  ****    0 ROOT
