@<TRIPOS>MOLECULE
VJT
   48    49     1     0     0
SMALL
abcg2


@<TRIPOS>ATOM
      1 N1           6.6020     8.5260     1.8490 n8         1 VJT      -0.999200
      2 C4           6.0670    15.1190    11.2110 c6         1 VJT       0.116300
      3 C5           7.2480    14.4380    10.5290 c6         1 VJT       0.180300
      4 C6           8.4640    15.3290    10.3880 c3         1 VJT      -0.081100
      5 C7           5.6520    12.5550     7.8910 c1         1 VJT      -0.111100
      6 C10          4.3960    10.6480     5.1740 ca         1 VJT      -0.088500
      7 C13          5.8230    11.7540     3.0850 ca         1 VJT      -0.114000
      8 C15          4.8020    10.1780     1.3870 c3         1 VJT       0.003300
      9 C17          4.4470    11.3220     0.4300 c3         1 VJT      -0.081600
     10 O5           6.8850    13.9890     9.2330 os         1 VJT      -0.429000
     11 C3           4.8770    14.1560    11.2350 c6         1 VJT       0.085300
     12 C2           4.5690    13.6360     9.8370 c6         1 VJT       0.151300
     13 C1           5.8540    13.0340     9.2530 c6         1 VJT       0.267400
     14 O2           3.5970    12.6270     9.8460 oh         1 VJT      -0.710000
     15 O3           3.7090    14.7870    11.7170 oh         1 VJT      -0.666000
     16 O4           5.7550    16.3060    10.5260 oh         1 VJT      -0.697000
     17 C9           5.2900    11.6850     5.4360 ca         1 VJT       0.023000
     18 C11          4.2280    10.1720     3.8820 ca         1 VJT      -0.114000
     19 C12          4.9340    10.7100     2.8080 ca         1 VJT      -0.056300
     20 C14          6.0020    12.2370     4.3680 ca         1 VJT      -0.088500
     21 C18          6.1580     9.5840     0.9580 c3         1 VJT       0.159800
     22 C16          3.7190     9.1070     1.2660 c3         1 VJT      -0.081600
     23 H1           7.3980     8.0540     1.4400 hn         1 VJT       0.396000
     24 H2           6.9360     8.9280     2.7160 hn         1 VJT       0.396000
     25 H4           6.3630    15.3250    12.2520 h1         1 VJT       0.032700
     26 H6           8.7670    15.7030    11.3660 hc         1 VJT       0.050367
     27 H7           9.3030    14.7710     9.9710 hc         1 VJT       0.050367
     28 H8           8.2660    16.1850     9.7430 hc         1 VJT       0.050367
     29 H9           3.8330    10.2060     5.9860 ha         1 VJT       0.121000
     30 H10          6.4000    12.2010     2.2850 ha         1 VJT       0.114500
     31 H11          3.4910    11.7730     0.7000 hc         1 VJT       0.037700
     32 H12          5.1990    12.1130     0.4230 hc         1 VJT       0.037700
     33 H13          4.3610    10.9450    -0.5910 hc         1 VJT       0.037700
     34 H14          5.1500    13.2970    11.8660 h1         1 VJT       0.047700
     35 H15          4.2680    14.4790     9.1980 h1         1 VJT       0.072700
     36 H16          6.1410    12.1740     9.8840 h1         1 VJT       0.054700
     37 H17          2.7910    12.9880    10.2300 ho         1 VJT       0.519000
     38 H18          3.7600    14.8420    12.6770 ho         1 VJT       0.450000
     39 H19          4.9130    16.6270    10.8690 ho         1 VJT       0.513000
     40 H20          3.5290     9.3620     3.7270 ha         1 VJT       0.114500
     41 H21          6.7010    13.0430     4.5470 ha         1 VJT       0.121000
     42 H22          6.8860    10.4020     0.8530 h1         1 VJT       0.026700
     43 H23          6.0350     9.1600    -0.0430 h1         1 VJT       0.026700
     44 H24          3.9410     8.2270     1.8690 hc         1 VJT       0.037700
     45 H25          2.7400     9.4880     1.5620 hc         1 VJT       0.037700
     46 H26          3.6430     8.7810     0.2270 hc         1 VJT       0.037700
     47 C8           5.4810    12.1620     6.7660 cg         1 VJT      -0.084000
     48 H5           7.5180    13.5710    11.1530 h1         1 VJT       0.032700
@<TRIPOS>BOND
     1     1    21 1   
     2     1    23 1   
     3     1    24 1   
     4     2     3 1   
     5     2    11 1   
     6     2    16 1   
     7     2    25 1   
     8     3     4 1   
     9     3    10 1   
    10     3    48 1   
    11     4    26 1   
    12     4    27 1   
    13     4    28 1   
    14     5    13 1   
    15     5    47 3   
    16     6    17 ar  
    17     6    18 ar  
    18     6    29 1   
    19     7    19 ar  
    20     7    20 ar  
    21     7    30 1   
    22     8     9 1   
    23     8    19 1   
    24     8    21 1   
    25     8    22 1   
    26     9    31 1   
    27     9    32 1   
    28     9    33 1   
    29    10    13 1   
    30    11    12 1   
    31    11    15 1   
    32    11    34 1   
    33    12    13 1   
    34    12    14 1   
    35    12    35 1   
    36    13    36 1   
    37    14    37 1   
    38    15    38 1   
    39    16    39 1   
    40    17    20 ar  
    41    17    47 1   
    42    18    19 ar  
    43    18    40 1   
    44    20    41 1   
    45    21    42 1   
    46    21    43 1   
    47    22    44 1   
    48    22    45 1   
    49    22    46 1   
@<TRIPOS>SUBSTRUCTURE
     1 VJT         1 TEMP              0 ****  ****    0 ROOT
