@<TRIPOS>MOLECULE
VJT
   48    49     1     0     0
SMALL
No Charge or Current Charge


@<TRIPOS>ATOM
      1 N1           6.3490     8.1970     1.7070 n8         1 VJT      -0.999200
      2 C4           5.9590    15.2160    11.2290 c6         1 VJT       0.116300
      3 C5           7.2300    14.6670    10.4930 c6         1 VJT       0.180300
      4 C6           8.3060    15.7520    10.2360 c3         1 VJT      -0.081100
      5 C7           5.7790    12.4710     7.9230 c1         1 VJT      -0.111100
      6 C10          4.2750    10.8490     5.1240 ca         1 VJT      -0.088500
      7 C13          6.1480    11.4490     3.1300 ca         1 VJT      -0.114000
      8 C15          4.8250    10.2030     1.3160 c3         1 VJT       0.003300
      9 C17          4.6950    11.4520     0.4020 c3         1 VJT      -0.081600
     10 O5           6.8770    14.1040     9.2090 os         1 VJT      -0.429000
     11 C3           4.9230    14.0600    11.3670 c6         1 VJT       0.085300
     12 C2           4.6280    13.4090     9.9790 c6         1 VJT       0.151300
     13 C1           5.9720    12.9790     9.2970 c6         1 VJT       0.267400
     14 O2           3.7100    12.3100    10.1610 oh         1 VJT      -0.710000
     15 O3           3.6980    14.5460    11.9590 oh         1 VJT      -0.666000
     16 O4           5.3370    16.3130    10.5320 oh         1 VJT      -0.697000
     17 C9           5.4120    11.6060     5.4460 ca         1 VJT       0.023000
     18 C11          4.0730    10.3920     3.8090 ca         1 VJT      -0.114000
     19 C12          5.0090    10.6820     2.7850 ca         1 VJT      -0.056300
     20 C14          6.3480    11.9050     4.4440 ca         1 VJT      -0.088500
     21 C18          6.0720     9.3760     0.8570 c3         1 VJT       0.159800
     22 C16          3.5440     9.3400     1.1110 c3         1 VJT      -0.081600
     23 H1           7.2570     7.7970     1.4400 hn         1 VJT       0.396000
     24 H2           6.4970     8.5210     2.6690 hn         1 VJT       0.396000
     25 H4           6.2570    15.5390    12.2370 h1         1 VJT       0.032700
     26 H6           8.6250    16.2170    11.1770 hc         1 VJT       0.050367
     27 H7           9.1950    15.3170     9.7640 hc         1 VJT       0.050367
     28 H8           7.9310    16.5440     9.5790 hc         1 VJT       0.050367
     29 H9           3.5420    10.6130     5.8930 ha         1 VJT       0.121000
     30 H10          6.8900    11.7020     2.3770 ha         1 VJT       0.114500
     31 H11          3.8490    12.0750     0.7150 hc         1 VJT       0.037700
     32 H12          5.5990    12.0710     0.4340 hc         1 VJT       0.037700
     33 H13          4.5320    11.1590    -0.6420 hc         1 VJT       0.037700
     34 H14          5.3660    13.2880    12.0140 h1         1 VJT       0.047700
     35 H15          4.1640    14.1720     9.3350 h1         1 VJT       0.072700
     36 H16          6.4500    12.1750     9.8760 h1         1 VJT       0.054700
     37 H17          3.0590    12.6410    10.8270 ho         1 VJT       0.519000
     38 H18          3.8610    14.6520    12.9250 ho         1 VJT       0.450000
     39 H19          4.3920    16.2810    10.8160 ho         1 VJT       0.513000
     40 H20          3.1760     9.8120     3.6120 ha         1 VJT       0.114500
     41 H21          7.2320    12.4930     4.6810 ha         1 VJT       0.121000
     42 H22          6.9640    10.0160     0.8680 h1         1 VJT       0.026700
     43 H23          5.9280     9.0310    -0.1760 h1         1 VJT       0.026700
     44 H24          3.5560     8.4450     1.7440 hc         1 VJT       0.037700
     45 H25          2.6390     9.9140     1.3420 hc         1 VJT       0.037700
     46 H26          3.4640     9.0050     0.0690 hc         1 VJT       0.037700
     47 C8           5.6150    12.0710     6.7870 cg         1 VJT      -0.084000
     48 H5           7.6870    13.8770    11.1070 h1         1 VJT       0.032700
@<TRIPOS>BOND
     1     1    21 1   
     2     1    23 1   
     3     1    24 1   
     4     2     3 1   
     5     2    11 1   
     6     2    16 1   
     7     2    25 1   
     8     3     4 1   
     9     3    10 1   
    10     3    48 1   
    11     4    26 1   
    12     4    27 1   
    13     4    28 1   
    14     5    13 1   
    15     5    47 3   
    16     6    17 ar  
    17     6    18 ar  
    18     6    29 1   
    19     7    19 ar  
    20     7    20 ar  
    21     7    30 1   
    22     8     9 1   
    23     8    19 1   
    24     8    21 1   
    25     8    22 1   
    26     9    31 1   
    27     9    32 1   
    28     9    33 1   
    29    10    13 1   
    30    11    12 1   
    31    11    15 1   
    32    11    34 1   
    33    12    13 1   
    34    12    14 1   
    35    12    35 1   
    36    13    36 1   
    37    14    37 1   
    38    15    38 1   
    39    16    39 1   
    40    17    20 ar  
    41    17    47 1   
    42    18    19 ar  
    43    18    40 1   
    44    20    41 1   
    45    21    42 1   
    46    21    43 1   
    47    22    44 1   
    48    22    45 1   
    49    22    46 1   
@<TRIPOS>SUBSTRUCTURE
     1 VJT         1 TEMP              0 ****  ****    0 ROOT
