@<TRIPOS>MOLECULE
VJV
   82    86     1     0     0
SMALL
bcc


@<TRIPOS>ATOM
      1 O2          76.3570    32.9360    -2.2500 o          1 VJV      -0.613100
      2 C22         76.4530    32.0570    -1.4030 c          1 VJV       0.709100
      3 C23         77.7490    31.4940    -0.9380 cx         1 VJV      -0.243700
      4 C25         78.8260    32.3860    -0.3380 cx         1 VJV      -0.069000
      5 C30         79.5820    31.7990     0.8320 c6         1 VJV      -0.051900
      6 C29         78.8550    32.1050     2.1330 c6         1 VJV       0.165300
      7 N4          78.6560    33.5320     2.2970 n3         1 VJV      -0.718600
      8 C28         78.0630    33.8370     3.5770 c3         1 VJV       0.155100
      9 C27         77.8840    34.0920     1.2030 c6         1 VJV       0.165300
     10 C26         78.5760    33.8600    -0.1320 c6         1 VJV      -0.051900
     11 C24         79.0130    31.8080    -1.6920 cx         1 VJV      -0.082400
     12 N3          75.3640    31.5180    -0.8170 ns         1 VJV      -0.562900
     13 C8          74.0310    32.0130    -1.0840 c3         1 VJV       0.102400
     14 C7          73.0020    31.0700    -0.4610 c3         1 VJV      -0.086400
     15 C6          71.5650    31.4620    -0.7770 c3         1 VJV      -0.074400
     16 C5          70.5520    30.4870    -0.1920 c3         1 VJV      -0.076400
     17 C4          69.1150    30.8520    -0.5440 c3         1 VJV      -0.070400
     18 C3          68.1100    29.9090     0.1050 c3         1 VJV      -0.138400
     19 C2          66.6450    30.1490    -0.2870 c3         1 VJV       0.366600
     20 O1          66.2500    31.4690    -0.0170 oh         1 VJV      -0.581800
     21 O           66.4820    30.0630    -1.6820 oh         1 VJV      -0.581800
     22 C1          65.7040    29.1480     0.4020 c3         1 VJV      -0.132400
     23 C           65.6500    29.2470     1.9210 c3         1 VJV      -0.088100
     24 C9          73.8710    33.4140    -0.5700 cc         1 VJV       0.386800
     25 N2          73.3850    34.4340    -1.3070 na         1 VJV      -0.277900
     26 C21         73.3610    35.5470    -0.5230 cc         1 VJV      -0.233600
     27 C10         73.8480    35.1440     0.6950 cd         1 VJV       0.354800
     28 N           74.1530    33.8090     0.6430 nd         1 VJV      -0.679000
     29 C11         74.0610    35.9360     1.9020 ca         1 VJV      -0.097500
     30 C20         74.5610    35.3580     3.0470 ca         1 VJV      -0.090000
     31 C19         74.7800    36.1200     4.2120 ca         1 VJV      -0.153300
     32 C14         74.4810    37.5020     4.2200 ca         1 VJV       0.405600
     33 C13         73.9660    38.0820     3.0380 ca         1 VJV      -0.170300
     34 C12         73.7650    37.3240     1.9200 ca         1 VJV      -0.115000
     35 C18         75.2960    35.5680     5.4070 ca         1 VJV      -0.079000
     36 C17         75.4800    36.3730     6.4900 ca         1 VJV      -0.250300
     37 C15         75.1480    37.7510     6.4030 ca         1 VJV       0.435600
     38 N1          74.6680    38.2850     5.3090 nb         1 VJV      -0.670000
     39 C16         75.3500    38.6320     7.5960 c3         1 VJV      -0.148400
     40 H1          77.6790    30.5060    -0.4920 hc         1 VJV       0.082700
     41 H2          79.7020    30.7190     0.7200 hc         1 VJV       0.056700
     42 H3          80.5860    32.2340     0.8650 hc         1 VJV       0.056700
     43 H4          77.8950    31.5560     2.1460 h1         1 VJV       0.035700
     44 H5          79.4380    31.7330     2.9790 h1         1 VJV       0.035700
     45 H7          78.7010    33.4750     4.3840 h1         1 VJV       0.028700
     46 H8          77.9550    34.9170     3.6960 h1         1 VJV       0.028700
     47 H9          77.0660    33.3880     3.7130 h1         1 VJV       0.028700
     48 H10         77.7620    35.1640     1.3750 h1         1 VJV       0.035700
     49 H11         76.8670    33.6620     1.1650 h1         1 VJV       0.035700
     50 H12         79.5390    34.3810    -0.1330 hc         1 VJV       0.056700
     51 H13         77.9820    34.2910    -0.9370 hc         1 VJV       0.056700
     52 H14         79.7260    31.0030    -1.8210 hc         1 VJV       0.083200
     53 H15         78.9200    32.4690    -2.5450 hc         1 VJV       0.083200
     54 H16         75.4860    30.8710    -0.0530 hn         1 VJV       0.321500
     55 H17         73.8740    32.0260    -2.1670 h1         1 VJV       0.066700
     56 H18         73.1930    30.0600    -0.8360 hc         1 VJV       0.054200
     57 H19         73.1500    31.0410     0.6230 hc         1 VJV       0.054200
     58 H20         71.3560    32.4650    -0.3920 hc         1 VJV       0.044200
     59 H21         71.4360    31.5180    -1.8630 hc         1 VJV       0.044200
     60 H22         70.7680    29.4750    -0.5500 hc         1 VJV       0.037700
     61 H23         70.6680    30.4570     0.8970 hc         1 VJV       0.037700
     62 H24         68.9240    31.8820    -0.2280 hc         1 VJV       0.052200
     63 H25         68.9990    30.8350    -1.6310 hc         1 VJV       0.052200
     64 H26         68.3640    28.8730    -0.1460 hc         1 VJV       0.044700
     65 H27         68.2100    29.9770     1.1940 hc         1 VJV       0.044700
     66 H28         66.6300    31.7440     0.8230 ho         1 VJV       0.414000
     67 H29         66.6190    29.1480    -1.9500 ho         1 VJV       0.414000
     68 H30         64.7000    29.3020    -0.0040 hc         1 VJV       0.052700
     69 H31         66.0040    28.1340     0.1190 hc         1 VJV       0.052700
     70 H32         64.9160    28.5470     2.3200 hc         1 VJV       0.035367
     71 H33         66.6060    29.0110     2.3870 hc         1 VJV       0.035367
     72 H34         65.3530    30.2440     2.2510 hc         1 VJV       0.035367
     73 H35         73.1040    34.3870    -2.2740 hn         1 VJV       0.308700
     74 H36         73.0120    36.4970    -0.8930 h4         1 VJV       0.179000
     75 H38         74.7960    34.3010     3.0630 ha         1 VJV       0.150000
     76 H39         73.7360    39.1400     3.0370 ha         1 VJV       0.147000
     77 H40         73.3730    37.7990     1.0290 ha         1 VJV       0.128000
     78 H41         75.5400    34.5130     5.4490 ha         1 VJV       0.135000
     79 H42         75.8750    35.9770     7.4170 ha         1 VJV       0.138000
     80 H43         75.0320    39.6510     7.3860 hc         1 VJV       0.051367
     81 H44         74.7870    38.2620     8.4550 hc         1 VJV       0.051367
     82 H45         76.4010    38.6510     7.8910 hc         1 VJV       0.051367
@<TRIPOS>BOND
     1     1     2 2   
     2     2     3 1   
     3     2    12 1   
     4     3     4 1   
     5     3    11 1   
     6     3    40 1   
     7     4     5 1   
     8     4    10 1   
     9     4    11 1   
    10     5     6 1   
    11     5    41 1   
    12     5    42 1   
    13     6     7 1   
    14     6    43 1   
    15     6    44 1   
    16     7     8 1   
    17     7     9 1   
    18     8    45 1   
    19     8    46 1   
    20     8    47 1   
    21     9    10 1   
    22     9    48 1   
    23     9    49 1   
    24    10    50 1   
    25    10    51 1   
    26    11    52 1   
    27    11    53 1   
    28    12    13 1   
    29    12    54 1   
    30    13    14 1   
    31    13    24 1   
    32    13    55 1   
    33    14    15 1   
    34    14    56 1   
    35    14    57 1   
    36    15    16 1   
    37    15    58 1   
    38    15    59 1   
    39    16    17 1   
    40    16    60 1   
    41    16    61 1   
    42    17    18 1   
    43    17    62 1   
    44    17    63 1   
    45    18    19 1   
    46    18    64 1   
    47    18    65 1   
    48    19    20 1   
    49    19    21 1   
    50    19    22 1   
    51    20    66 1   
    52    21    67 1   
    53    22    23 1   
    54    22    68 1   
    55    22    69 1   
    56    23    70 1   
    57    23    71 1   
    58    23    72 1   
    59    24    25 1   
    60    24    28 2   
    61    25    26 1   
    62    25    73 1   
    63    26    27 2   
    64    26    74 1   
    65    27    28 1   
    66    27    29 1   
    67    29    30 ar  
    68    29    34 ar  
    69    30    31 ar  
    70    30    75 1   
    71    31    32 ar  
    72    31    35 ar  
    73    32    33 ar  
    74    32    38 ar  
    75    33    34 ar  
    76    33    76 1   
    77    34    77 1   
    78    35    36 ar  
    79    35    78 1   
    80    36    37 ar  
    81    36    79 1   
    82    37    38 ar  
    83    37    39 1   
    84    39    80 1   
    85    39    81 1   
    86    39    82 1   
@<TRIPOS>SUBSTRUCTURE
     1 VJV         1 TEMP              0 ****  ****    0 ROOT
