@<TRIPOS>MOLECULE
VJV
   82    86     1     0     0
SMALL
No Charge or Current Charge


@<TRIPOS>ATOM
      1 O2          76.4100    32.5490    -2.8600 o          1 VJV      -0.613100
      2 C22         76.5590    31.9570    -1.8000 c          1 VJV       0.642100
      3 C23         77.8970    31.4730    -1.2970 cx         1 VJV      -0.243700
      4 C25         78.7170    32.3480    -0.3620 cx         1 VJV      -0.069000
      5 C30         79.5230    31.6880     0.7740 c6         1 VJV      -0.051900
      6 C29         78.7340    31.6790     2.1070 c6         1 VJV       0.165300
      7 N4          78.3000    33.0500     2.4980 n3         1 VJV      -0.718600
      8 C28         77.6290    33.0770     3.8150 c3         1 VJV       0.155100
      9 C27         77.4650    33.6710     1.4330 c6         1 VJV       0.165300
     10 C26         78.2200    33.7400     0.0830 c6         1 VJV      -0.051900
     11 C24         79.1650    32.1520    -1.7920 cx         1 VJV      -0.082400
     12 N3          75.5150    31.6720    -0.9580 ns         1 VJV      -0.495900
     13 C8          74.1410    32.1600    -1.1470 c3         1 VJV       0.102400
     14 C7          73.1350    31.1830    -0.4940 c3         1 VJV      -0.086400
     15 C6          71.6550    31.5320    -0.7790 c3         1 VJV      -0.074400
     16 C5          70.6670    30.5240    -0.1500 c3         1 VJV      -0.076400
     17 C4          69.1880    30.8710    -0.4310 c3         1 VJV      -0.070400
     18 C3          68.2020    29.8500     0.2030 c3         1 VJV      -0.138400
     19 C2          66.6900    30.1160    -0.0380 c3         1 VJV       0.413000
     20 O1          66.3260    31.3570     0.5130 oh         1 VJV      -0.644000
     21 O           66.4470    30.2390    -1.4180 oh         1 VJV      -0.644000
     22 C1          65.7630    29.0070     0.5250 c3         1 VJV      -0.132400
     23 C           65.8550    28.7630     2.0520 c3         1 VJV      -0.088100
     24 C9          73.9900    33.5940    -0.6620 cc         1 VJV       0.386800
     25 N2          73.7370    34.6690    -1.4790 na         1 VJV      -0.277500
     26 C21         73.7510    35.8080    -0.6970 cc         1 VJV      -0.201000
     27 C10         74.0250    35.3670     0.5740 cd         1 VJV       0.289500
     28 N           74.1580    33.9960     0.5880 nd         1 VJV      -0.679000
     29 C11         74.1950    36.1920     1.7900 ca         1 VJV      -0.097500
     30 C20         74.5040    35.5900     3.0290 ca         1 VJV      -0.072000
     31 C19         74.6860    36.3730     4.1840 ca         1 VJV      -0.088000
     32 C14         74.5610    37.7830     4.1280 ca         1 VJV       0.275000
     33 C13         74.2510    38.3760     2.8910 ca         1 VJV      -0.087000
     34 C12         74.0710    37.5950     1.7350 ca         1 VJV      -0.097000
     35 C18         74.9990    35.7590     5.4100 ca         1 VJV      -0.061000
     36 C17         75.1750    36.5760     6.5360 ca         1 VJV      -0.167000
     37 C15         75.0310    37.9680     6.4020 ca         1 VJV       0.370300
     38 N1          74.7320    38.5610     5.2240 nb         1 VJV      -0.670000
     39 C16         75.2160    38.8940     7.5890 c3         1 VJV      -0.148400
     40 H1          77.9560    30.3980    -1.1500 hc         1 VJV       0.082700
     41 H2          79.7990    30.6610     0.5010 hc         1 VJV       0.056700
     42 H3          80.4650    32.2370     0.9110 hc         1 VJV       0.056700
     43 H4          77.8590    31.0200     1.9990 h1         1 VJV       0.035700
     44 H5          79.3720    31.2440     2.8910 h1         1 VJV       0.035700
     45 H7          78.2850    32.6630     4.5930 h1         1 VJV       0.028700
     46 H8          77.3760    34.1070     4.0990 h1         1 VJV       0.028700
     47 H9          76.7020    32.4880     3.7950 h1         1 VJV       0.028700
     48 H10         77.1660    34.6890     1.7240 h1         1 VJV       0.035700
     49 H11         76.5450    33.0870     1.2970 h1         1 VJV       0.035700
     50 H12         79.0830    34.4110     0.1850 hc         1 VJV       0.056700
     51 H13         77.5730    34.1910    -0.6810 hc         1 VJV       0.056700
     52 H14         80.0360    31.5270    -1.9730 hc         1 VJV       0.083200
     53 H15         79.0700    32.9950    -2.4730 hc         1 VJV       0.083200
     54 H16         75.7480    31.1940    -0.0970 hn         1 VJV       0.321500
     55 H17         73.9360    32.1540    -2.2260 h1         1 VJV       0.066700
     56 H18         73.3350    30.1700    -0.8650 hc         1 VJV       0.054200
     57 H19         73.3000    31.1620     0.5910 hc         1 VJV       0.054200
     58 H20         71.4340    32.5340    -0.3920 hc         1 VJV       0.044200
     59 H21         71.4940    31.5640    -1.8640 hc         1 VJV       0.044200
     60 H22         70.8820    29.5200    -0.5370 hc         1 VJV       0.037700
     61 H23         70.8300    30.4910     0.9350 hc         1 VJV       0.037700
     62 H24         68.9830    31.8770    -0.0460 hc         1 VJV       0.052200
     63 H25         69.0350    30.9050    -1.5170 hc         1 VJV       0.052200
     64 H26         68.4430    28.8510    -0.1790 hc         1 VJV       0.044700
     65 H27         68.3920    29.8200     1.2830 hc         1 VJV       0.044700
     66 H28         67.0990    31.9360     0.3640 ho         1 VJV       0.453000
     67 H29         65.4850    30.0970    -1.5250 ho         1 VJV       0.453000
     68 H30         64.7210    29.2530     0.2840 hc         1 VJV       0.052700
     69 H31         65.9840    28.0630     0.0110 hc         1 VJV       0.052700
     70 H32         65.1190    28.0110     2.3590 hc         1 VJV       0.035367
     71 H33         66.8470    28.3940     2.3350 hc         1 VJV       0.035367
     72 H34         65.6520    29.6840     2.6120 hc         1 VJV       0.035367
     73 H35         73.5930    34.6190    -2.4810 hn         1 VJV       0.359000
     74 H36         73.5920    36.8040    -1.0910 h4         1 VJV       0.161000
     75 H38         74.6080    34.5090     3.0980 ha         1 VJV       0.132000
     76 H39         74.1510    39.4560     2.8290 ha         1 VJV       0.129000
     77 H40         73.8360    38.0940     0.7990 ha         1 VJV       0.110000
     78 H41         75.1030    34.6790     5.4890 ha         1 VJV       0.117000
     79 H42         75.4190    36.1390     7.5000 ha         1 VJV       0.120000
     80 H43         74.4770    39.7040     7.5820 hc         1 VJV       0.051367
     81 H44         75.1040    38.3540     8.5360 hc         1 VJV       0.051367
     82 H45         76.2140    39.3460     7.5760 hc         1 VJV       0.051367
@<TRIPOS>BOND
     1     1     2 2   
     2     2     3 1   
     3     2    12 1   
     4     3     4 1   
     5     3    11 1   
     6     3    40 1   
     7     4     5 1   
     8     4    10 1   
     9     4    11 1   
    10     5     6 1   
    11     5    41 1   
    12     5    42 1   
    13     6     7 1   
    14     6    43 1   
    15     6    44 1   
    16     7     8 1   
    17     7     9 1   
    18     8    45 1   
    19     8    46 1   
    20     8    47 1   
    21     9    10 1   
    22     9    48 1   
    23     9    49 1   
    24    10    50 1   
    25    10    51 1   
    26    11    52 1   
    27    11    53 1   
    28    12    13 1   
    29    12    54 1   
    30    13    14 1   
    31    13    24 1   
    32    13    55 1   
    33    14    15 1   
    34    14    56 1   
    35    14    57 1   
    36    15    16 1   
    37    15    58 1   
    38    15    59 1   
    39    16    17 1   
    40    16    60 1   
    41    16    61 1   
    42    17    18 1   
    43    17    62 1   
    44    17    63 1   
    45    18    19 1   
    46    18    64 1   
    47    18    65 1   
    48    19    20 1   
    49    19    21 1   
    50    19    22 1   
    51    20    66 1   
    52    21    67 1   
    53    22    23 1   
    54    22    68 1   
    55    22    69 1   
    56    23    70 1   
    57    23    71 1   
    58    23    72 1   
    59    24    25 1   
    60    24    28 2   
    61    25    26 1   
    62    25    73 1   
    63    26    27 2   
    64    26    74 1   
    65    27    28 1   
    66    27    29 1   
    67    29    30 ar  
    68    29    34 ar  
    69    30    31 ar  
    70    30    75 1   
    71    31    32 ar  
    72    31    35 ar  
    73    32    33 ar  
    74    32    38 ar  
    75    33    34 ar  
    76    33    76 1   
    77    34    77 1   
    78    35    36 ar  
    79    35    78 1   
    80    36    37 ar  
    81    36    79 1   
    82    37    38 ar  
    83    37    39 1   
    84    39    80 1   
    85    39    81 1   
    86    39    82 1   
@<TRIPOS>SUBSTRUCTURE
     1 VJV         1 TEMP              0 ****  ****    0 ROOT
