@<TRIPOS>MOLECULE
VJW
   45    47     1     0     0
SMALL
abcg2


@<TRIPOS>ATOM
      1 N1           6.0410    11.6280     8.5540 ns         1 VJW      -0.477900
      2 C4           5.8570    14.7560    11.3320 c6         1 VJW       0.113300
      3 C5           7.1410    13.9980    11.0180 c6         1 VJW       0.190300
      4 C6           8.3660    14.8850    10.9350 c3         1 VJW      -0.080100
      5 C7           6.8750    10.5850     8.3420 c          1 VJW       0.553600
      6 C8           6.8410     9.9860     7.0030 cc         1 VJW       0.059500
      7 C10          7.1170     8.7870     5.1570 cd         1 VJW      -0.189000
      8 C13          5.5350     9.3790     2.5970 ca         1 VJW      -0.160000
      9 C15          3.9120    10.7710     1.5000 ca         1 VJW      -0.168000
     10 C17          4.5100    11.2050     3.8010 ca         1 VJW      -0.129000
     11 C1           6.0050    12.3310     9.7950 c6         1 VJW       0.342700
     12 O5           7.0190    13.3060     9.7870 os         1 VJW      -0.458000
     13 C3           4.6830    13.7760    11.3110 c6         1 VJW       0.088300
     14 O3           3.4460    14.4440    11.4340 oh         1 VJW      -0.668000
     15 C2           4.6430    12.9900    10.0050 c6         1 VJW       0.136300
     16 O2           3.6730    11.9760    10.0310 oh         1 VJW      -0.708000
     17 O4           5.6830    15.7920    10.3990 oh         1 VJW      -0.697000
     18 O7           7.6230    10.1300     9.1920 o          1 VJW      -0.585100
     19 O8           6.0220    10.4880     6.0530 os         1 VJW      -0.236000
     20 C11          6.1870     9.7630     4.9310 cc         1 VJW       0.216500
     21 C9           7.5400     8.9340     6.4990 cd         1 VJW      -0.102000
     22 C12          5.3980    10.1270     3.7650 ca         1 VJW      -0.089500
     23 C16          3.7780    11.5090     2.6630 ca         1 VJW      -0.073000
     24 C14          4.8010     9.6880     1.4500 ca         1 VJW       0.292000
     25 N2           4.9820     8.9790     0.2850 nv         1 VJW      -1.075000
     26 H1           5.4940    11.9910     7.7870 hn         1 VJW       0.334500
     27 H2           5.9510    15.1540    12.3560 h1         1 VJW       0.034700
     28 H3           7.2840    13.2710    11.8340 h1         1 VJW       0.036700
     29 H5           9.2650    14.2850    10.7890 hc         1 VJW       0.051033
     30 H6           8.2910    15.5980    10.1160 hc         1 VJW       0.051033
     31 H7           7.4620     8.0500     4.4500 ha         1 VJW       0.144000
     32 H8           6.2190     8.5390     2.5650 ha         1 VJW       0.115000
     33 H9           3.3300    11.0290     0.6240 ha         1 VJW       0.114000
     34 H10          4.3840    11.7990     4.6950 ha         1 VJW       0.124000
     35 H11          6.1810    11.6120    10.6070 h2         1 VJW       0.073700
     36 H12          4.8290    13.0590    12.1320 h1         1 VJW       0.051700
     37 H13          3.3070    14.6740    12.3590 ho         1 VJW       0.453000
     38 H14          4.4690    13.6920     9.1750 h1         1 VJW       0.064700
     39 H15          2.8230    12.3830    10.2260 ho         1 VJW       0.520000
     40 H16          4.7930    16.1410    10.5160 ho         1 VJW       0.512000
     41 H17          8.2670     8.3370     7.0240 ha         1 VJW       0.158000
     42 H18          3.0860    12.3410     2.6830 ha         1 VJW       0.113000
     43 H19          5.3510     8.0470     0.3880 hn         1 VJW       0.450500
     44 H20          4.2200     9.0110    -0.3720 hn         1 VJW       0.450500
     45 H4           8.4860    15.4430    11.8640 hc         1 VJW       0.051033
@<TRIPOS>BOND
     1     1     5 1   
     2     1    11 1   
     3     1    26 1   
     4     2     3 1   
     5     2    13 1   
     6     2    17 1   
     7     2    27 1   
     8     3     4 1   
     9     3    12 1   
    10     3    28 1   
    11     4    29 1   
    12     4    30 1   
    13     4    45 1   
    14     5     6 1   
    15     5    18 2   
    16     6    19 1   
    17     6    21 2   
    18     7    20 2   
    19     7    21 1   
    20     7    31 1   
    21     8    22 ar  
    22     8    24 ar  
    23     8    32 1   
    24     9    23 ar  
    25     9    24 ar  
    26     9    33 1   
    27    10    22 ar  
    28    10    23 ar  
    29    10    34 1   
    30    11    12 1   
    31    11    15 1   
    32    11    35 1   
    33    13    14 1   
    34    13    15 1   
    35    13    36 1   
    36    14    37 1   
    37    15    16 1   
    38    15    38 1   
    39    16    39 1   
    40    17    40 1   
    41    19    20 1   
    42    20    22 1   
    43    21    41 1   
    44    23    42 1   
    45    24    25 1   
    46    25    43 1   
    47    25    44 1   
@<TRIPOS>SUBSTRUCTURE
     1 VJW         1 TEMP              0 ****  ****    0 ROOT
