@<TRIPOS>MOLECULE
VJW
   45    47     1     0     0
SMALL
No Charge or Current Charge


@<TRIPOS>ATOM
      1 N1           6.0710    11.5870     8.6360 ns         1 VJW      -0.477900
      2 C4           5.9080    14.7990    11.4640 c6         1 VJW       0.113300
      3 C5           7.1720    13.8960    11.2500 c6         1 VJW       0.190300
      4 C6           8.5010    14.6920    11.2440 c3         1 VJW      -0.080100
      5 C7           7.0080    10.6370     8.3140 c          1 VJW       0.553600
      6 C8           6.8840    10.1420     6.9170 cc         1 VJW       0.059500
      7 C10          7.2050     9.0320     4.9970 cd         1 VJW      -0.189000
      8 C13          5.5420     9.3280     2.4800 ca         1 VJW      -0.160000
      9 C15          3.7410    10.5060     1.3530 ca         1 VJW      -0.168000
     10 C17          4.3120    11.0670     3.6490 ca         1 VJW      -0.129000
     11 C1           5.9730    12.2820     9.9130 c6         1 VJW       0.342700
     12 O5           7.0930    13.1870     9.9920 os         1 VJW      -0.458000
     13 C3           4.6320    13.9110    11.3570 c6         1 VJW       0.088300
     14 O3           3.4410    14.7240    11.4350 oh         1 VJW      -0.668000
     15 C2           4.6410    13.0990    10.0250 c6         1 VJW       0.136300
     16 O2           3.4670    12.2620     9.9640 oh         1 VJW      -0.708000
     17 O4           5.8070    15.8630    10.4970 oh         1 VJW      -0.697000
     18 O7           7.8460    10.2410     9.1160 o          1 VJW      -0.585100
     19 O8           5.9290    10.5930     6.0240 os         1 VJW      -0.236000
     20 C11          6.1510     9.8950     4.8600 cc         1 VJW       0.216500
     21 C9           7.6750     9.1920     6.3190 cd         1 VJW      -0.102000
     22 C12          5.3340    10.0930     3.6530 ca         1 VJW      -0.089500
     23 C16          3.5200    11.2730     2.5070 ca         1 VJW      -0.073000
     24 C14          4.7500     9.5340     1.3390 ca         1 VJW       0.292000
     25 N2           4.9620     8.7860     0.2130 nv         1 VJW      -1.075000
     26 H1           5.3980    11.8210     7.9190 hn         1 VJW       0.334500
     27 H2           5.9530    15.2240    12.4780 h1         1 VJW       0.034700
     28 H3           7.2270    13.1570    12.0640 h1         1 VJW       0.036700
     29 H5           9.3600    14.0180    11.1420 hc         1 VJW       0.051033
     30 H6           8.5370    15.4100    10.4160 hc         1 VJW       0.051033
     31 H7           7.6080     8.3590     4.2480 ha         1 VJW       0.144000
     32 H8           6.3170     8.5700     2.4480 ha         1 VJW       0.115000
     33 H9           3.1260    10.6690     0.4720 ha         1 VJW       0.114000
     34 H10          4.1270    11.6710     4.5350 ha         1 VJW       0.124000
     35 H11          6.0280    11.5430    10.7280 h2         1 VJW       0.073700
     36 H12          4.6480    13.1930    12.1920 h1         1 VJW       0.051700
     37 H13          3.3070    14.9600    12.3830 ho         1 VJW       0.453000
     38 H14          4.6220    13.8130     9.1880 h1         1 VJW       0.064700
     39 H15          2.7410    12.8250    10.3260 ho         1 VJW       0.520000
     40 H16          4.8400    16.0500    10.4390 ho         1 VJW       0.512000
     41 H17          8.5050     8.6670     6.7830 ha         1 VJW       0.158000
     42 H18          2.7360    12.0280     2.5180 ha         1 VJW       0.113000
     43 H19          5.5930     7.9870     0.2460 hn         1 VJW       0.450500
     44 H20          4.3020     8.8340    -0.5610 hn         1 VJW       0.450500
     45 H4           8.6270    15.2510    12.1790 hc         1 VJW       0.051033
@<TRIPOS>BOND
     1     1     5 1   
     2     1    11 1   
     3     1    26 1   
     4     2     3 1   
     5     2    13 1   
     6     2    17 1   
     7     2    27 1   
     8     3     4 1   
     9     3    12 1   
    10     3    28 1   
    11     4    29 1   
    12     4    30 1   
    13     4    45 1   
    14     5     6 1   
    15     5    18 2   
    16     6    19 1   
    17     6    21 2   
    18     7    20 2   
    19     7    21 1   
    20     7    31 1   
    21     8    22 ar  
    22     8    24 ar  
    23     8    32 1   
    24     9    23 ar  
    25     9    24 ar  
    26     9    33 1   
    27    10    22 ar  
    28    10    23 ar  
    29    10    34 1   
    30    11    12 1   
    31    11    15 1   
    32    11    35 1   
    33    13    14 1   
    34    13    15 1   
    35    13    36 1   
    36    14    37 1   
    37    15    16 1   
    38    15    38 1   
    39    16    39 1   
    40    17    40 1   
    41    19    20 1   
    42    20    22 1   
    43    21    41 1   
    44    23    42 1   
    45    24    25 1   
    46    25    43 1   
    47    25    44 1   
@<TRIPOS>SUBSTRUCTURE
     1 VJW         1 TEMP              0 ****  ****    0 ROOT
