@<TRIPOS>MOLECULE
VJX
   40    42     1     0     0
SMALL
abcg2


@<TRIPOS>ATOM
      1 C10        -14.4730    -3.3250    22.9730 cc         1 VJX       0.057600
      2 C13        -15.0830    -3.9300    24.0160 cd         1 VJX      -0.333200
      3 C15        -16.5170    -4.1250    24.0920 c          1 VJX       0.568200
      4 C17        -17.4850    -2.5400    20.9020 ca         1 VJX      -0.185000
      5 C20        -16.9240    -1.9050    19.8160 ca         1 VJX      -0.067000
      6 C21        -12.5810    -7.9580    22.6600 ca         1 VJX      -0.121600
      7 C22        -11.9690    -9.0980    22.1460 ca         1 VJX      -0.067500
      8 C24        -12.0530   -10.3100    22.8090 ca         1 VJX      -0.120500
      9 C26        -12.7780   -10.3840    23.9890 ca         1 VJX       0.122000
     10 CL01       -12.9050   -11.8990    24.8160 cl         1 VJX      -0.232000
     11 O03        -17.0910    -4.6780    25.0240 o          1 VJX      -0.587000
     12 O05        -12.3640    -6.6930    20.6700 o          1 VJX      -0.610100
     13 N06        -12.5220    -5.5550    22.6180 ns         1 VJX      -0.450900
     14 N07        -17.2150    -3.6380    23.0190 ns         1 VJX      -0.378100
     15 C08        -12.9810    -3.1930    22.9380 c3         1 VJX      -0.053200
     16 C09        -12.3230    -4.2500    22.0390 c3         1 VJX      -0.048300
     17 C11        -15.2710    -2.8330    21.8710 ca         1 VJX      -0.118800
     18 C12        -16.6630    -3.0070    21.9340 ca         1 VJX       0.093600
     19 C14        -14.7310    -2.1820    20.7520 ca         1 VJX      -0.032000
     20 C16        -10.8250    -3.8990    21.7920 c          1 VJX       0.719000
     21 C19        -15.5420    -1.7230    19.7360 ca         1 VJX      -0.157000
     22 C23        -13.3050    -8.0580    23.8460 ca         1 VJX      -0.067500
     23 C25        -13.4100    -9.2680    24.5140 ca         1 VJX      -0.120500
     24 H1         -14.5040    -4.2990    24.8540 ha         1 VJX       0.200000
     25 H2         -18.5570    -2.6790    20.9670 ha         1 VJX       0.106000
     26 H3         -17.5650    -1.5460    19.0210 ha         1 VJX       0.103000
     27 H4         -11.4120    -9.0410    21.2200 ha         1 VJX       0.133000
     28 H5         -11.5620   -11.1870    22.4080 ha         1 VJX       0.121500
     29 H7         -12.3830    -5.6340    23.6140 hn         1 VJX       0.299500
     30 H8         -18.2200    -3.7530    23.0430 hn         1 VJX       0.314500
     31 H9         -12.5860    -3.2860    23.9530 hc         1 VJX       0.065700
     32 H10        -12.6910    -2.2050    22.5820 hc         1 VJX       0.065700
     33 H11        -12.8190    -4.2450    21.0660 h1         1 VJX       0.069700
     34 H12        -13.6610    -2.0390    20.6760 ha         1 VJX       0.156000
     35 H13        -15.1080    -1.2240    18.8800 ha         1 VJX       0.117000
     36 H14        -13.8200    -7.1980    24.2550 ha         1 VJX       0.133000
     37 H15        -13.9850    -9.3380    25.4270 ha         1 VJX       0.121500
     38 O02        -10.6460    -2.8270    21.1840 o          1 VJX      -0.713500
     39 O04         -9.9730    -4.6960    22.2130 o          1 VJX      -0.713500
     40 C18        -12.4710    -6.6800    21.8890 c          1 VJX       0.611700
@<TRIPOS>BOND
     1     1     2 2   
     2     1    15 1   
     3     1    17 1   
     4     2     3 1   
     5     2    24 1   
     6     3    11 2   
     7     3    14 1   
     8     4     5 ar  
     9     4    18 ar  
    10     4    25 1   
    11     5    21 ar  
    12     5    26 1   
    13     6     7 ar  
    14     6    22 ar  
    15     6    40 1   
    16     7     8 ar  
    17     7    27 1   
    18     8     9 ar  
    19     8    28 1   
    20     9    10 1   
    21     9    23 ar  
    22    12    40 2   
    23    13    16 1   
    24    13    29 1   
    25    13    40 1   
    26    14    18 1   
    27    14    30 1   
    28    15    16 1   
    29    15    31 1   
    30    15    32 1   
    31    16    20 1   
    32    16    33 1   
    33    17    18 ar  
    34    17    19 ar  
    35    19    21 ar  
    36    19    34 1   
    37    20    38 1   
    38    20    39 1   
    39    21    35 1   
    40    22    23 ar  
    41    22    36 1   
    42    23    37 1   
@<TRIPOS>SUBSTRUCTURE
     1 VJX         1 TEMP              0 ****  ****    0 ROOT
