@<TRIPOS>MOLECULE
VJX
   40    42     1     0     0
SMALL
No Charge or Current Charge


@<TRIPOS>ATOM
      1 C10        -14.4510    -3.4060    22.9330 cc         1 VJX       0.057600
      2 C13        -15.1560    -4.1310    23.8840 cd         1 VJX      -0.333200
      3 C15        -16.5550    -4.5700    23.7580 c          1 VJX       0.568200
      4 C17        -17.2830    -3.1400    20.4080 ca         1 VJX      -0.185000
      5 C20        -16.6840    -2.4020    19.3770 ca         1 VJX      -0.067000
      6 C21        -12.9030    -7.6640    22.7910 ca         1 VJX      -0.121600
      7 C22        -13.6760    -8.6900    22.1970 ca         1 VJX      -0.067500
      8 C24        -13.7270    -9.9740    22.7680 ca         1 VJX      -0.120500
      9 C26        -13.0090   -10.2510    23.9390 ca         1 VJX       0.122000
     10 Cl01       -13.0750   -11.8570    24.6520 cl         1 VJX      -0.232000
     11 O03        -17.1470    -5.2110    24.6100 o          1 VJX      -0.587000
     12 O05        -13.5050    -6.0380    21.1300 o          1 VJX      -0.610100
     13 N06        -12.0920    -5.3340    22.7690 ns         1 VJX      -0.450900
     14 N07        -17.1440    -4.1930    22.5890 ns         1 VJX      -0.378100
     15 C08        -13.0030    -3.0300    23.1580 c3         1 VJX      -0.053200
     16 C09        -11.9950    -3.9070    22.3710 c3         1 VJX      -0.048300
     17 C11        -15.2060    -3.0550    21.7090 ca         1 VJX      -0.118800
     18 C12        -16.5480    -3.4610    21.5600 ca         1 VJX       0.093600
     19 C14        -14.6140    -2.3100    20.6610 ca         1 VJX      -0.032000
     20 C16        -10.5380    -3.3890    22.5550 c          1 VJX       0.719000
     21 C19        -15.3490    -1.9880    19.5060 ca         1 VJX      -0.157000
     22 C23        -12.1830    -7.9600    23.9760 ca         1 VJX      -0.067500
     23 C25        -12.2390    -9.2470    24.5420 ca         1 VJX      -0.120500
     24 H1         -14.6890    -4.4390    24.8110 ha         1 VJX       0.200000
     25 H2         -18.3170    -3.4620    20.3100 ha         1 VJX       0.106000
     26 H3         -17.2500    -2.1520    18.4820 ha         1 VJX       0.103000
     27 H4         -14.2410    -8.4940    21.2880 ha         1 VJX       0.133000
     28 H5         -14.3250   -10.7520    22.3010 ha         1 VJX       0.121500
     29 H7         -11.5680    -5.6290    23.5820 hn         1 VJX       0.299500
     30 H8         -18.1060    -4.4750    22.4610 hn         1 VJX       0.314500
     31 H9         -12.7650    -3.0960    24.2270 hc         1 VJX       0.065700
     32 H10        -12.8490    -1.9770    22.8950 hc         1 VJX       0.065700
     33 H11        -12.2210    -3.8300    21.3010 h1         1 VJX       0.069700
     34 H12        -13.5830    -1.9730    20.7270 ha         1 VJX       0.156000
     35 H13        -14.8810    -1.4160    18.7090 ha         1 VJX       0.117000
     36 H14        -11.5770    -7.2080    24.4750 ha         1 VJX       0.133000
     37 H15        -11.6840    -9.4650    25.4510 ha         1 VJX       0.121500
     38 O02        -10.0030    -2.8300    21.6080 o          1 VJX      -0.713500
     39 O04         -9.9590    -3.6350    23.6050 o          1 VJX      -0.713500
     40 C18        -12.8740    -6.2900    22.1490 c          1 VJX       0.611700
@<TRIPOS>BOND
     1     1     2 2   
     2     1    15 1   
     3     1    17 1   
     4     2     3 1   
     5     2    24 1   
     6     3    11 2   
     7     3    14 1   
     8     4     5 ar  
     9     4    18 ar  
    10     4    25 1   
    11     5    21 ar  
    12     5    26 1   
    13     6     7 ar  
    14     6    22 ar  
    15     6    40 1   
    16     7     8 ar  
    17     7    27 1   
    18     8     9 ar  
    19     8    28 1   
    20     9    10 1   
    21     9    23 ar  
    22    12    40 2   
    23    13    16 1   
    24    13    29 1   
    25    13    40 1   
    26    14    18 1   
    27    14    30 1   
    28    15    16 1   
    29    15    31 1   
    30    15    32 1   
    31    16    20 1   
    32    16    33 1   
    33    17    18 ar  
    34    17    19 ar  
    35    19    21 ar  
    36    19    34 1   
    37    20    38 1   
    38    20    39 1   
    39    21    35 1   
    40    22    23 ar  
    41    22    36 1   
    42    23    37 1   
@<TRIPOS>SUBSTRUCTURE
     1 VJX         1 TEMP              0 ****  ****    0 ROOT
