@<TRIPOS>MOLECULE
VJY
   24    24     1     0     0
SMALL
abcg2


@<TRIPOS>ATOM
      1 C7          25.1090    17.2260    31.4570 c          1 VJY       0.600100
      2 C8          24.6200    16.5470    30.2010 c3         1 VJY      -0.182100
      3 O1          26.2890    17.4120    31.7020 o          1 VJY      -0.586100
      4 C1          25.6290    15.9320    38.2270 c          1 VJY       0.610700
      5 C5          24.6790    17.2750    34.6630 cc         1 VJY      -0.214300
      6 C6          24.3880    18.2530    33.5590 c3         1 VJY       0.176300
      7 C4          24.5830    15.9110    34.6380 cd         1 VJY      -0.140000
      8 C3          24.9070    15.3160    35.8760 cd         1 VJY      -0.057000
      9 C2          25.2490    16.2280    36.8390 cc         1 VJY      -0.314600
     10 N           24.1260    17.6150    32.3000 ns         1 VJY      -0.515900
     11 S           25.1720    17.8340    36.2050 ss         1 VJY       0.228000
     12 O           25.6630    14.7820    38.6160 o          1 VJY      -0.519100
     13 C           25.9570    17.0950    39.1230 c3         1 VJY      -0.197100
     14 H1          25.4510    16.3570    29.5260 hc         1 VJY       0.061367
     15 H2          24.1440    15.5970    30.4450 hc         1 VJY       0.061367
     16 H3          23.8790    17.1590    29.6860 hc         1 VJY       0.061367
     17 H4          25.2180    18.9530    33.4510 h1         1 VJY       0.065700
     18 H5          23.5130    18.8490    33.8240 h1         1 VJY       0.065700
     19 H6          24.2860    15.3530    33.7610 ha         1 VJY       0.136000
     20 H7          24.8900    14.2500    36.0540 ha         1 VJY       0.150000
     21 H8          23.1690    17.4100    32.0660 hn         1 VJY       0.315500
     22 H9          26.2610    16.7460    40.1070 hc         1 VJY       0.064700
     23 H10         26.7620    17.6980    38.6990 hc         1 VJY       0.064700
     24 H11         25.0890    17.7480    39.2350 hc         1 VJY       0.064700
@<TRIPOS>BOND
     1     1     2 1   
     2     1     3 2   
     3     1    10 1   
     4     2    14 1   
     5     2    15 1   
     6     2    16 1   
     7     4     9 1   
     8     4    12 2   
     9     4    13 1   
    10     5     6 1   
    11     5     7 2   
    12     5    11 1   
    13     6    10 1   
    14     6    17 1   
    15     6    18 1   
    16     7     8 1   
    17     7    19 1   
    18     8     9 2   
    19     8    20 1   
    20     9    11 1   
    21    10    21 1   
    22    13    22 1   
    23    13    23 1   
    24    13    24 1   
@<TRIPOS>SUBSTRUCTURE
     1 VJY         1 TEMP              0 ****  ****    0 ROOT
