@<TRIPOS>MOLECULE
VJY
   24    24     1     0     0
SMALL
No Charge or Current Charge


@<TRIPOS>ATOM
      1 C7          25.3730    17.6360    31.7260 c          1 VJY       0.600100
      2 C8          25.7490    16.8250    30.4940 c3         1 VJY      -0.182100
      3 O1          26.1030    18.4990    32.1920 o          1 VJY      -0.586100
      4 C1          25.7050    15.9470    38.0310 c          1 VJY       0.610700
      5 C5          23.9130    17.1560    34.7010 cc         1 VJY      -0.214300
      6 C6          23.5880    17.9460    33.4660 c3         1 VJY       0.176300
      7 C4          23.2670    16.0450    35.1870 cd         1 VJY      -0.140000
      8 C3          23.8360    15.5330    36.3840 cd         1 VJY      -0.057000
      9 C2          24.9220    16.2560    36.8150 cc         1 VJY      -0.314600
     10 N           24.1510    17.3230    32.2700 ns         1 VJY      -0.515900
     11 S           25.2690    17.6020    35.7340 ss         1 VJY       0.228000
     12 O           25.4280    14.9990    38.7540 o          1 VJY      -0.519100
     13 C           26.8880    16.8520    38.3690 c3         1 VJY      -0.197100
     14 H1          26.7280    17.1030    30.0870 hc         1 VJY       0.061367
     15 H2          25.7020    15.7580    30.7410 hc         1 VJY       0.061367
     16 H3          24.9560    16.9260    29.7440 hc         1 VJY       0.061367
     17 H4          23.9680    18.9720    33.5660 h1         1 VJY       0.065700
     18 H5          22.4980    18.0070    33.3500 h1         1 VJY       0.065700
     19 H6          22.4040    15.5970    34.7030 ha         1 VJY       0.136000
     20 H7          23.4470    14.6590    36.9010 ha         1 VJY       0.150000
     21 H8          23.6220    16.5880    31.8160 hn         1 VJY       0.315500
     22 H9          27.4060    16.5450    39.2840 hc         1 VJY       0.064700
     23 H10         27.5710    16.8830    37.5120 hc         1 VJY       0.064700
     24 H11         26.5390    17.8890    38.4330 hc         1 VJY       0.064700
@<TRIPOS>BOND
     1     1     2 1   
     2     1     3 2   
     3     1    10 1   
     4     2    14 1   
     5     2    15 1   
     6     2    16 1   
     7     4     9 1   
     8     4    12 2   
     9     4    13 1   
    10     5     6 1   
    11     5     7 2   
    12     5    11 1   
    13     6    10 1   
    14     6    17 1   
    15     6    18 1   
    16     7     8 1   
    17     7    19 1   
    18     8     9 2   
    19     8    20 1   
    20     9    11 1   
    21    10    21 1   
    22    13    22 1   
    23    13    23 1   
    24    13    24 1   
@<TRIPOS>SUBSTRUCTURE
     1 VJY         1 TEMP              0 ****  ****    0 ROOT
