@<TRIPOS>MOLECULE
VJZ
   54    58     1     0     0
SMALL
abcg2


@<TRIPOS>ATOM
      1 C1          27.5660    15.8640    20.5420 c3         1 VJZ       0.284100
      2 C2          26.4120    16.0770    19.5990 cc         1 VJZ      -0.155300
      3 C3          25.0790    16.1930    20.0900 cc         1 VJZ      -0.094000
      4 N6          23.6980     6.4090    27.1980 na         1 VJZ       0.132800
      5 C7          25.5400    16.2940    16.0350 cc         1 VJZ      -0.290100
      6 C8          26.6290    16.1070    18.2590 cd         1 VJZ      -0.098000
      7 C9          26.9830    14.2200    22.1930 cc         1 VJZ       0.674900
      8 C10         26.1900    13.0170    23.7520 cc         1 VJZ       0.473500
      9 C11         25.8300    11.7730    24.4100 ca         1 VJZ      -0.145500
     10 C12         26.0380    10.5710    23.7240 ca         1 VJZ      -0.075000
     11 C13         25.6760     9.3590    24.2760 ca         1 VJZ      -0.121000
     12 C14         25.0970     9.3030    25.5440 ca         1 VJZ       0.046000
     13 C15         24.9210    10.5030    26.2320 ca         1 VJZ      -0.128000
     14 C16         25.2660    11.7400    25.6980 ca         1 VJZ      -0.019300
     15 C19         25.3720     6.7870    25.9790 cc         1 VJZ       0.260900
     16 C20         22.7560     5.6210    27.9580 c3         1 VJZ       0.067900
     17 C21         23.6120     7.7240    26.9220 cd         1 VJZ      -0.112300
     18 C22         22.4850     8.5690    27.3980 c3         1 VJZ      -0.035800
     19 N5          24.7570     5.8260    26.6340 nd         1 VJZ      -0.521800
     20 C18         24.7080     8.0210    26.1220 cc         1 VJZ      -0.173000
     21 C17         25.0310    12.9690    26.5250 c3         1 VJZ      -0.052800
     22 O           26.8270    12.9410    22.5490 os         1 VJZ      -0.312000
     23 N3          25.9880    14.2430    24.0770 nd         1 VJZ      -0.342000
     24 N4          26.4900    15.0350    23.0780 nd         1 VJZ      -0.445000
     25 N           27.6190    14.5010    21.0470 nh         1 VJZ      -0.767300
     26 C           27.9360    13.4450    20.1040 c3         1 VJZ       0.210100
     27 N2          25.5750    16.2440    17.4040 na         1 VJZ       0.129100
     28 C6          24.2150    16.4320    15.7200 cd         1 VJZ      -0.028400
     29 N1          23.4340    16.4690    16.8280 nd         1 VJZ      -0.287600
     30 C5          24.2670    16.3530    17.8450 cd         1 VJZ      -0.078000
     31 C4          24.0290    16.3290    19.2350 cd         1 VJZ      -0.073000
     32 H1          28.5100    16.0690    20.0350 h1         1 VJZ       0.077700
     33 H2          27.5040    16.5470    21.3890 h1         1 VJZ       0.077700
     34 H3          24.9100    16.1790    21.1590 ha         1 VJZ       0.145000
     35 H4          26.4300    16.2280    15.4330 h4         1 VJZ       0.230000
     36 H5          27.6100    16.0260    17.8100 h4         1 VJZ       0.140000
     37 H6          26.4720    10.5750    22.7330 ha         1 VJZ       0.122000
     38 H7          25.8260     8.4500    23.7060 ha         1 VJZ       0.119000
     39 H8          24.5180    10.4800    27.2370 ha         1 VJZ       0.115000
     40 H9          26.2850     6.5840    25.4380 h4         1 VJZ       0.039100
     41 H10         23.2260     4.6750    28.2070 h1         1 VJZ       0.057367
     42 H11         22.4870     6.1340    28.8790 h1         1 VJZ       0.057367
     43 H12         21.8500     5.4270    27.3850 h1         1 VJZ       0.057367
     44 H13         21.5330     8.0420    27.3280 hc         1 VJZ       0.054367
     45 H14         22.6160     8.8740    28.4380 hc         1 VJZ       0.054367
     46 H15         22.4080     9.4720    26.7960 hc         1 VJZ       0.054367
     47 H16         24.3000    13.6310    26.0620 hc         1 VJZ       0.053700
     48 H17         24.6620    12.6930    27.5110 hc         1 VJZ       0.053700
     49 H18         25.9430    13.5510    26.6530 hc         1 VJZ       0.053700
     50 H19         28.4090    12.6030    20.6050 h1         1 VJZ       0.047033
     51 H20         27.0590    13.0880    19.5600 h1         1 VJZ       0.047033
     52 H21         28.6480    13.8390    19.3820 h1         1 VJZ       0.047033
     53 H22         23.7940    16.5060    14.7290 h4         1 VJZ       0.227000
     54 H23         23.0120    16.4230    19.5920 ha         1 VJZ       0.147000
@<TRIPOS>BOND
     1     1     2 1   
     2     1    25 1   
     3     1    32 1   
     4     1    33 1   
     5     2     3 1   
     6     2     6 2   
     7     3    31 2   
     8     3    34 1   
     9     4    16 1   
    10     4    17 1   
    11     4    19 1   
    12     5    27 1   
    13     5    28 2   
    14     5    35 1   
    15     6    27 1   
    16     6    36 1   
    17     7    22 1   
    18     7    24 2   
    19     7    25 1   
    20     8     9 1   
    21     8    22 1   
    22     8    23 2   
    23     9    10 ar  
    24     9    14 ar  
    25    10    11 ar  
    26    10    37 1   
    27    11    12 ar  
    28    11    38 1   
    29    12    13 ar  
    30    12    20 1   
    31    13    14 ar  
    32    13    39 1   
    33    14    21 1   
    34    15    19 2   
    35    15    20 1   
    36    15    40 1   
    37    16    41 1   
    38    16    42 1   
    39    16    43 1   
    40    17    18 1   
    41    17    20 2   
    42    18    44 1   
    43    18    45 1   
    44    18    46 1   
    45    21    47 1   
    46    21    48 1   
    47    21    49 1   
    48    23    24 1   
    49    25    26 1   
    50    26    50 1   
    51    26    51 1   
    52    26    52 1   
    53    27    30 1   
    54    28    29 1   
    55    28    53 1   
    56    29    30 2   
    57    30    31 1   
    58    31    54 1   
@<TRIPOS>SUBSTRUCTURE
     1 VJZ         1 TEMP              0 ****  ****    0 ROOT
