@<TRIPOS>MOLECULE
VJZ
   54    58     1     0     0
SMALL
No Charge or Current Charge


@<TRIPOS>ATOM
      1 C1          27.3030    15.9780    20.5820 c3         1 VJZ       0.284100
      2 C2          26.3570    16.2050    19.4280 cc         1 VJZ      -0.155300
      3 C3          24.9570    16.3670    19.7360 cc         1 VJZ      -0.094000
      4 N6          23.7150     6.1900    27.3050 na         1 VJZ       0.132800
      5 C7          26.0600    16.5420    15.7720 cc         1 VJZ      -0.290100
      6 C8          26.8100    16.2520    18.1100 cd         1 VJZ      -0.098000
      7 C9          26.6170    14.2080    22.1980 cc         1 VJZ       0.674900
      8 C10         25.8360    12.9440    23.6840 cc         1 VJZ       0.473500
      9 C11         25.5500    11.6750    24.3820 ca         1 VJZ      -0.145500
     10 C12         25.6070    10.4750    23.6390 ca         1 VJZ      -0.075000
     11 C13         25.3020     9.2390    24.2270 ca         1 VJZ      -0.121000
     12 C14         24.9030     9.1550    25.5730 ca         1 VJZ       0.046000
     13 C15         24.8600    10.3470    26.3230 ca         1 VJZ      -0.128000
     14 C16         25.1670    11.6000    25.7500 ca         1 VJZ      -0.019300
     15 C19         24.9340     6.5680    25.6310 cc         1 VJZ       0.260900
     16 C20         22.9770     5.3980    28.3030 c3         1 VJZ       0.067900
     17 C21         23.7540     7.5930    27.2060 cd         1 VJZ      -0.112300
     18 C22         22.9230     8.5130    28.0760 c3         1 VJZ      -0.035800
     19 N5          24.4430     5.5550    26.3100 nd         1 VJZ      -0.521800
     20 C18         24.5970     7.8310    26.1460 cc         1 VJZ      -0.173000
     21 C17         25.1160    12.8270    26.6590 c3         1 VJZ      -0.052800
     22 O           26.5830    12.9050    22.5520 os         1 VJZ      -0.312000
     23 N3          25.4380    14.1710    23.9930 nd         1 VJZ      -0.342000
     24 N4          25.9530    14.9950    23.0250 nd         1 VJZ      -0.445000
     25 N           27.3040    14.5810    21.0660 nh         1 VJZ      -0.767300
     26 C           27.9810    13.5740    20.2220 c3         1 VJZ       0.210100
     27 N2          25.8470    16.4620    17.1130 na         1 VJZ       0.129100
     28 C6          24.7760    16.7550    15.2700 cd         1 VJZ      -0.028400
     29 N1          23.7950    16.8060    16.2740 nd         1 VJZ      -0.287600
     30 C5          24.5340    16.6140    17.4090 cd         1 VJZ      -0.078000
     31 C4          24.0310    16.5730    18.7420 cd         1 VJZ      -0.073000
     32 H1          28.3180    16.2560    20.2650 h1         1 VJZ       0.077700
     33 H2          27.0450    16.6750    21.3920 h1         1 VJZ       0.077700
     34 H3          24.6350    16.3220    20.7730 ha         1 VJZ       0.145000
     35 H4          27.0320    16.4490    15.3000 h4         1 VJZ       0.230000
     36 H5          27.8400    16.1370    17.7960 h4         1 VJZ       0.140000
     37 H6          25.8830    10.4920    22.5870 ha         1 VJZ       0.122000
     38 H7          25.3540     8.3440    23.6130 ha         1 VJZ       0.119000
     39 H8          24.6280    10.3110    27.3800 ha         1 VJZ       0.115000
     40 H9          25.5450     6.3550    24.7640 h4         1 VJZ       0.039100
     41 H10         23.2890     4.3470    28.2540 h1         1 VJZ       0.057367
     42 H11         23.1850     5.7880    29.3070 h1         1 VJZ       0.057367
     43 H12         21.9020     5.4660    28.1000 h1         1 VJZ       0.057367
     44 H13         22.0670     7.9920    28.5200 hc         1 VJZ       0.054367
     45 H14         23.5180     8.9250    28.8990 hc         1 VJZ       0.054367
     46 H15         22.5110     9.3470    27.4950 hc         1 VJZ       0.054367
     47 H16         24.2680    13.4730    26.4030 hc         1 VJZ       0.053700
     48 H17         25.0020    12.5510    27.7140 hc         1 VJZ       0.053700
     49 H18         26.0360    13.4170    26.5850 hc         1 VJZ       0.053700
     50 H19         28.6910    12.9870    20.8200 h1         1 VJZ       0.047033
     51 H20         27.2450    12.8870    19.7840 h1         1 VJZ       0.047033
     52 H21         28.5370    14.0490    19.4030 h1         1 VJZ       0.047033
     53 H22         24.5000    16.8770    14.2240 h4         1 VJZ       0.227000
     54 H23         22.9750    16.6950    18.9610 ha         1 VJZ       0.147000
@<TRIPOS>BOND
     1     1     2 1   
     2     1    25 1   
     3     1    32 1   
     4     1    33 1   
     5     2     3 1   
     6     2     6 2   
     7     3    31 2   
     8     3    34 1   
     9     4    16 1   
    10     4    17 1   
    11     4    19 1   
    12     5    27 1   
    13     5    28 2   
    14     5    35 1   
    15     6    27 1   
    16     6    36 1   
    17     7    22 1   
    18     7    24 2   
    19     7    25 1   
    20     8     9 1   
    21     8    22 1   
    22     8    23 2   
    23     9    10 ar  
    24     9    14 ar  
    25    10    11 ar  
    26    10    37 1   
    27    11    12 ar  
    28    11    38 1   
    29    12    13 ar  
    30    12    20 1   
    31    13    14 ar  
    32    13    39 1   
    33    14    21 1   
    34    15    19 2   
    35    15    20 1   
    36    15    40 1   
    37    16    41 1   
    38    16    42 1   
    39    16    43 1   
    40    17    18 1   
    41    17    20 2   
    42    18    44 1   
    43    18    45 1   
    44    18    46 1   
    45    21    47 1   
    46    21    48 1   
    47    21    49 1   
    48    23    24 1   
    49    25    26 1   
    50    26    50 1   
    51    26    51 1   
    52    26    52 1   
    53    27    30 1   
    54    28    29 1   
    55    28    53 1   
    56    29    30 2   
    57    30    31 1   
    58    31    54 1   
@<TRIPOS>SUBSTRUCTURE
     1 VJZ         1 TEMP              0 ****  ****    0 ROOT
