@<TRIPOS>MOLECULE
VK0
   53    57     1     0     0
SMALL
abcg2


@<TRIPOS>ATOM
      1 C1           6.4980    25.7490   -22.5400 c3         1 VK0       0.143900
      2 C2           6.6130    27.6940   -23.8940 ca         1 VK0       0.172100
      3 C3           6.2150    28.5320   -22.8540 ca         1 VK0      -0.172500
      4 C4           6.0950    29.8960   -23.0750 ca         1 VK0      -0.051500
      5 C5           6.3590    30.4640   -24.3180 cp         1 VK0      -0.114000
      6 C6           6.2270    31.9140   -24.5400 cp         1 VK0       0.000000
      7 C7           5.7210    32.4150   -25.7520 ca         1 VK0      -0.033000
      8 C8           5.5950    33.7620   -25.9680 ca         1 VK0      -0.147000
      9 C9           5.9610    34.6800   -24.9720 ca         1 VK0       0.278000
     10 C10          6.4700    34.2130   -23.7390 ca         1 VK0      -0.098800
     11 C11          6.5980    32.8230   -23.5710 ca         1 VK0      -0.065000
     12 C12          6.8720    35.1580   -22.7120 cc         1 VK0       0.201800
     13 C16         10.1820    37.9860   -18.5160 ca         1 VK0      -0.038000
     14 C17         10.7770    37.6910   -17.3000 ca         1 VK0      -0.100000
     15 C18         10.6380    36.4250   -16.7350 ca         1 VK0      -0.059000
     16 C19          9.9040    35.4300   -17.3620 ca         1 VK0      -0.106000
     17 C20          9.3000    35.7230   -18.5790 ca         1 VK0      -0.010200
     18 O1           6.7610    26.3640   -23.7860 os         1 VK0      -0.329100
     19 N1           8.5190    34.8920   -19.3650 na         1 VK0      -0.170500
     20 C13          7.4080    34.7060   -21.4910 cf         1 VK0      -0.462600
     21 C14          8.0950    35.4320   -20.5340 cd         1 VK0       0.339500
     22 C15          9.4540    36.9880   -19.1420 ca         1 VK0      -0.213000
     23 C22          6.6670    36.5100   -23.0280 cc         1 VK0      -0.321000
     24 C23          6.1610    36.8960   -24.2390 cd         1 VK0       0.097000
     25 C25          6.7510    29.6070   -25.3520 ca         1 VK0      -0.051500
     26 C26          6.8800    28.2480   -25.1480 ca         1 VK0      -0.172500
     27 N2           5.8270    36.0310   -25.1970 na         1 VK0      -0.563200
     28 S1           8.6250    37.0840   -20.6650 ss         1 VK0       0.149800
     29 H1           6.6860    24.6870   -22.6750 h1         1 VK0       0.048367
     30 H2           7.1560    26.1250   -21.7520 h1         1 VK0       0.048367
     31 H3           5.4600    25.8870   -22.2280 h1         1 VK0       0.048367
     32 H4           5.9860    28.1430   -21.8710 ha         1 VK0       0.132500
     33 H5           5.7630    30.5210   -22.2540 ha         1 VK0       0.111500
     34 H6           5.4070    31.7330   -26.5320 ha         1 VK0       0.141000
     35 H7           5.1990    34.1010   -26.9140 ha         1 VK0       0.134000
     36 H8           7.0290    32.4370   -22.6590 ha         1 VK0       0.130000
     37 H10         10.2860    38.9630   -18.9670 ha         1 VK0       0.139000
     38 H11         11.3550    38.4500   -16.7900 ha         1 VK0       0.139000
     39 H12         11.1130    36.2060   -15.7890 ha         1 VK0       0.138000
     40 H13          9.8190    34.4550   -16.9020 ha         1 VK0       0.135000
     41 H14          7.1050    33.3760   -19.0930 h1         1 VK0       0.069033
     42 H16          8.7090    32.8120   -19.6140 h1         1 VK0       0.069033
     43 H15          8.4440    33.3610   -17.9550 h1         1 VK0       0.069033
     44 H9           7.3250    33.6530   -21.2750 ha         1 VK0       0.203000
     45 H17          6.8340    37.3030   -22.3170 ha         1 VK0       0.215000
     46 H18          6.0000    37.9410   -24.4570 h4         1 VK0       0.226000
     47 H21          5.9530    36.2160   -27.2880 h1         1 VK0       0.076700
     48 H19          4.2990    36.1590   -26.6370 h1         1 VK0       0.076700
     49 H20          5.2850    37.6110   -26.4370 h1         1 VK0       0.076700
     50 H22          6.9820    30.0080   -26.3310 ha         1 VK0       0.111500
     51 H23          7.1950    27.6050   -25.9600 ha         1 VK0       0.132500
     52 C24          5.3090    36.5270   -26.4680 c3         1 VK0       0.179100
     53 C21          8.1770    33.5310   -18.9910 c3         1 VK0       0.047900
@<TRIPOS>BOND
     1     1    18 1   
     2     1    29 1   
     3     1    30 1   
     4     1    31 1   
     5     2     3 ar  
     6     2    18 1   
     7     2    26 ar  
     8     3     4 ar  
     9     3    32 1   
    10     4     5 ar  
    11     4    33 1   
    12     5     6 1   
    13     5    25 ar  
    14     6     7 ar  
    15     6    11 ar  
    16     7     8 ar  
    17     7    34 1   
    18     8     9 ar  
    19     8    35 1   
    20     9    10 ar  
    21     9    27 1   
    22    10    11 ar  
    23    10    12 1   
    24    11    36 1   
    25    12    20 2   
    26    12    23 1   
    27    13    14 ar  
    28    13    22 ar  
    29    13    37 1   
    30    14    15 ar  
    31    14    38 1   
    32    15    16 ar  
    33    15    39 1   
    34    16    17 ar  
    35    16    40 1   
    36    17    19 1   
    37    17    22 ar  
    38    19    21 2   
    39    19    53 1   
    40    20    21 1   
    41    20    44 1   
    42    21    28 1   
    43    22    28 1   
    44    23    24 2   
    45    23    45 1   
    46    24    27 1   
    47    24    46 1   
    48    25    26 ar  
    49    25    50 1   
    50    26    51 1   
    51    27    52 1   
    52    41    53 1   
    53    42    53 1   
    54    43    53 1   
    55    47    52 1   
    56    48    52 1   
    57    49    52 1   
@<TRIPOS>SUBSTRUCTURE
     1 VK0         1 TEMP              0 ****  ****    0 ROOT
