@<TRIPOS>MOLECULE
VK0
   53    57     1     0     0
SMALL
No Charge or Current Charge


@<TRIPOS>ATOM
      1 C1           6.7170    25.3460   -23.0180 c3         1 VK0       0.143900
      2 C2           6.5450    27.4620   -24.2780 ca         1 VK0       0.172100
      3 C3           6.4380    28.2420   -23.1070 ca         1 VK0      -0.172500
      4 C4           6.3060    29.6390   -23.2010 ca         1 VK0      -0.051500
      5 C5           6.2770    30.2910   -24.4590 cp         1 VK0      -0.114000
      6 C6           6.1350    31.7780   -24.5590 cp         1 VK0       0.000000
      7 C7           5.3620    32.3670   -25.5770 ca         1 VK0      -0.033000
      8 C8           5.2370    33.7580   -25.6700 ca         1 VK0      -0.147000
      9 C9           5.8780    34.6260   -24.7520 ca         1 VK0       0.278000
     10 C10          6.6290    34.0540   -23.6990 ca         1 VK0      -0.098800
     11 C11          6.7590    32.6390   -23.6290 ca         1 VK0      -0.065000
     12 C12          7.2120    34.9590   -22.7090 cc         1 VK0       0.201800
     13 C16         10.9080    37.8250   -18.7370 ca         1 VK0      -0.038000
     14 C17         10.9890    37.9070   -17.3350 ca         1 VK0      -0.100000
     15 C18         10.2190    37.0410   -16.5310 ca         1 VK0      -0.059000
     16 C19          9.3670    36.0900   -17.1270 ca         1 VK0      -0.106000
     17 C20          9.2900    36.0150   -18.5320 ca         1 VK0      -0.010200
     18 O1           6.6770    26.0880   -24.2500 os         1 VK0      -0.329100
     19 N1           8.4900    35.1240   -19.2460 na         1 VK0      -0.170500
     20 C13          7.9980    34.5360   -21.6670 cf         1 VK0      -0.462600
     21 C14          8.6700    35.3160   -20.6270 cd         1 VK0       0.339500
     22 C15         10.0520    36.8700   -19.3080 ca         1 VK0      -0.213000
     23 C22          6.8660    36.3330   -22.8390 cc         1 VK0      -0.321000
     24 C23          6.1170    36.8670   -23.8680 cd         1 VK0       0.097000
     25 C25          6.3830    29.4890   -25.6230 ca         1 VK0      -0.051500
     26 C26          6.5160    28.0930   -25.5300 ca         1 VK0      -0.172500
     27 N2           5.7680    36.0290   -24.9460 na         1 VK0      -0.563200
     28 S1           9.8250    36.6190   -21.0380 ss         1 VK0       0.149800
     29 H1           6.8270    24.2740   -23.2230 h1         1 VK0       0.048367
     30 H2           7.5670    25.6620   -22.3990 h1         1 VK0       0.048367
     31 H3           5.7920    25.4890   -22.4450 h1         1 VK0       0.048367
     32 H4           6.4530    27.7860   -22.1220 ha         1 VK0       0.132500
     33 H5           6.2110    30.2180   -22.2850 ha         1 VK0       0.111500
     34 H6           4.8460    31.7380   -26.2990 ha         1 VK0       0.141000
     35 H7           4.6250    34.1460   -26.4780 ha         1 VK0       0.134000
     36 H8           7.3470    32.1660   -22.8540 ha         1 VK0       0.130000
     37 H10         11.5000    38.4890   -19.3650 ha         1 VK0       0.139000
     38 H11         11.6460    38.6400   -16.8710 ha         1 VK0       0.139000
     39 H12         10.2850    37.1070   -15.4470 ha         1 VK0       0.138000
     40 H13          8.7800    35.4270   -16.4950 ha         1 VK0       0.135000
     41 H14          6.9800    33.6360   -19.3470 h1         1 VK0       0.069033
     42 H16          8.1660    33.4260   -18.0290 h1         1 VK0       0.069033
     43 H15          6.9060    34.6920   -17.9130 h1         1 VK0       0.069033
     44 H9           8.1410    33.4710   -21.5370 ha         1 VK0       0.203000
     45 H17          7.1970    37.0170   -22.0660 ha         1 VK0       0.215000
     46 H18          5.8730    37.9270   -23.9430 h4         1 VK0       0.226000
     47 H21          5.7750    36.1060   -27.0800 h1         1 VK0       0.076700
     48 H19          4.1880    36.4410   -26.3190 h1         1 VK0       0.076700
     49 H20          5.4790    37.6670   -26.2850 h1         1 VK0       0.076700
     50 H22          6.3770    29.9520   -26.6070 ha         1 VK0       0.111500
     51 H23          6.6010    27.4960   -26.4340 ha         1 VK0       0.132500
     52 C24          5.2720    36.5900   -26.2330 c3         1 VK0       0.179100
     53 C21          7.5810    34.1610   -18.5950 c3         1 VK0       0.047900
@<TRIPOS>BOND
     1     1    18 1   
     2     1    29 1   
     3     1    30 1   
     4     1    31 1   
     5     2     3 ar  
     6     2    18 1   
     7     2    26 ar  
     8     3     4 ar  
     9     3    32 1   
    10     4     5 ar  
    11     4    33 1   
    12     5     6 1   
    13     5    25 ar  
    14     6     7 ar  
    15     6    11 ar  
    16     7     8 ar  
    17     7    34 1   
    18     8     9 ar  
    19     8    35 1   
    20     9    10 ar  
    21     9    27 1   
    22    10    11 ar  
    23    10    12 1   
    24    11    36 1   
    25    12    20 2   
    26    12    23 1   
    27    13    14 ar  
    28    13    22 ar  
    29    13    37 1   
    30    14    15 ar  
    31    14    38 1   
    32    15    16 ar  
    33    15    39 1   
    34    16    17 ar  
    35    16    40 1   
    36    17    19 1   
    37    17    22 ar  
    38    19    21 2   
    39    19    53 1   
    40    20    21 1   
    41    20    44 1   
    42    21    28 1   
    43    22    28 1   
    44    23    24 2   
    45    23    45 1   
    46    24    27 1   
    47    24    46 1   
    48    25    26 ar  
    49    25    50 1   
    50    26    51 1   
    51    27    52 1   
    52    41    53 1   
    53    42    53 1   
    54    43    53 1   
    55    47    52 1   
    56    48    52 1   
    57    49    52 1   
@<TRIPOS>SUBSTRUCTURE
     1 VK0         1 TEMP              0 ****  ****    0 ROOT
