@<TRIPOS>MOLECULE
VK1
   43    45     1     0     0
SMALL
No Charge or Current Charge


@<TRIPOS>ATOM
      1 C10        -16.7300    20.3590    -6.2090 c6         1 VK1       0.199500
      2 C15        -15.9820    17.9750    -5.7740 c6         1 VK1       0.180800
      3 C17        -20.7050    18.9940    -6.1220 ca         1 VK1       0.296300
      4 C03        -20.5310    15.4210    -6.8840 cx         1 VK1      -0.401300
      5 C04        -21.5570    14.6860    -6.0360 cx         1 VK1      -0.058400
      6 C05        -20.1050    14.2710    -5.9890 cx         1 VK1      -0.058400
      7 C06        -20.1120    16.8230    -6.5630 ca         1 VK1       0.202300
      8 C07        -18.7650    17.1590    -6.3820 ca         1 VK1      -0.265000
      9 C08        -18.4580    18.4930    -6.0640 ca         1 VK1       0.410900
     10 C11        -16.5640    20.4880    -7.7470 c3         1 VK1      -0.110100
     11 C12        -15.4450    20.8160    -5.4470 c6         1 VK1       0.142600
     12 C14        -14.7360    18.5620    -5.0480 c6         1 VK1       0.142600
     13 C19        -21.1320    21.8050    -5.6810 c3         1 VK1       0.025900
     14 N01        -21.8410    15.9680    -9.0430 n8         1 VK1      -0.969100
     15 N09        -17.1280    18.9460    -5.8630 nh         1 VK1      -0.766300
     16 N16        -19.4370    19.4080    -5.9370 nb         1 VK1      -0.281000
     17 N20        -21.0870    17.7390    -6.4250 nb         1 VK1      -0.251000
     18 N21        -21.1860    13.8770    -9.2080 n2         1 VK1      -0.832900
     19 O13        -14.3790    19.8520    -5.5900 os         1 VK1      -0.435000
     20 O22        -19.3920    15.7880    -9.3810 o          1 VK1      -0.515000
     21 S02        -20.5050    15.1410    -8.6960 s6         1 VK1       0.996600
     22 H1         -17.5220    21.0620    -5.9100 h1         1 VK1       0.088700
     23 H2         -16.2860    17.0750    -5.2210 h1         1 VK1       0.056700
     24 H3         -15.6850    17.6540    -6.7830 h1         1 VK1       0.056700
     25 H4         -21.9610    15.1910    -5.1610 hc         1 VK1       0.090950
     26 H5         -22.2540    14.0070    -6.5240 hc         1 VK1       0.090950
     27 H6         -19.8370    13.3240    -6.4520 hc         1 VK1       0.090950
     28 H7         -19.5460    14.5020    -5.0840 hc         1 VK1       0.090950
     29 H8         -17.9970    16.4050    -6.5030 ha         1 VK1       0.137000
     30 H9         -16.3150    21.5180    -8.0300 hc         1 VK1       0.047367
     31 H10        -15.7650    19.8370    -8.1220 hc         1 VK1       0.047367
     32 H11        -17.4890    20.2190    -8.2690 hc         1 VK1       0.047367
     33 H12        -15.1060    21.7890    -5.8300 h1         1 VK1       0.056200
     34 H13        -15.6750    20.9390    -4.3780 h1         1 VK1       0.056200
     35 H14        -14.9480    18.6690    -3.9750 h1         1 VK1       0.055700
     36 H15        -13.8840    17.8760    -5.1580 h1         1 VK1       0.055700
     37 H16        -21.8630    22.6160    -5.5750 h1         1 VK1       0.069700
     38 H17        -20.5260    21.7480    -4.7680 h1         1 VK1       0.069700
     39 H18        -20.4790    22.0200    -6.5360 h1         1 VK1       0.069700
     40 H19        -22.4510    15.1780    -9.2390 hn         1 VK1       0.473000
     41 H20        -22.1340    16.2680    -8.1170 hn         1 VK1       0.473000
     42 H21        -20.7120    13.6580   -10.0930 hn         1 VK1       0.439400
     43 S18        -22.0170    20.2010    -5.9520 ss         1 VK1      -0.317300
@<TRIPOS>BOND
     1     1    10 1   
     2     1    11 1   
     3     1    15 1   
     4     1    22 1   
     5     2    12 1   
     6     2    15 1   
     7     2    23 1   
     8     2    24 1   
     9     3    16 ar  
    10     3    17 ar  
    11     3    43 1   
    12     4     5 1   
    13     4     6 1   
    14     4     7 1   
    15     4    21 1   
    16     5     6 1   
    17     5    25 1   
    18     5    26 1   
    19     6    27 1   
    20     6    28 1   
    21     7     8 ar  
    22     7    17 ar  
    23     8     9 ar  
    24     8    29 1   
    25     9    15 1   
    26     9    16 ar  
    27    10    30 1   
    28    10    31 1   
    29    10    32 1   
    30    11    19 1   
    31    11    33 1   
    32    11    34 1   
    33    12    19 1   
    34    12    35 1   
    35    12    36 1   
    36    13    37 1   
    37    13    38 1   
    38    13    39 1   
    39    13    43 1   
    40    14    21 1   
    41    14    40 1   
    42    14    41 1   
    43    18    21 2   
    44    18    42 1   
    45    20    21 2   
@<TRIPOS>SUBSTRUCTURE
     1 VK1         1 TEMP              0 ****  ****    0 ROOT
