@<TRIPOS>MOLECULE
VK1
   43    45     1     0     0
SMALL
bcc


@<TRIPOS>ATOM
      1 C10        -16.7970    20.3330    -5.9510 c6         1 VK1       0.199500
      2 C15        -15.9420    18.0160    -5.9380 c6         1 VK1       0.180800
      3 C17        -20.5300    18.9510    -6.5080 ca         1 VK1       0.822300
      4 C03        -20.3790    15.3870    -6.9630 cx         1 VK1      -0.290500
      5 C04        -21.0530    14.5840    -5.8920 cx         1 VK1      -0.058400
      6 C05        -19.6840    14.2110    -6.3530 cx         1 VK1      -0.058400
      7 C06        -19.9520    16.7880    -6.6840 ca         1 VK1       0.530600
      8 C07        -18.6380    17.1000    -6.4350 ca         1 VK1      -0.413600
      9 C08        -18.3350    18.4580    -6.1830 ca         1 VK1       0.739200
     10 C11        -16.4910    20.7630    -7.3820 c3         1 VK1      -0.110100
     11 C12        -15.6660    20.6510    -4.9840 c6         1 VK1       0.119400
     12 C14        -14.8580    18.4990    -4.9910 c6         1 VK1       0.119400
     13 C19        -20.9860    21.6860    -6.3510 c3         1 VK1      -0.022000
     14 N01        -22.5050    15.9570    -8.6580 n8         1 VK1      -0.858700
     15 N09        -17.0970    18.8990    -5.8850 nh         1 VK1      -0.766300
     16 N16        -19.3140    19.3700    -6.2420 nb         1 VK1      -0.807000
     17 N20        -20.9240    17.7060    -6.7200 nb         1 VK1      -0.777000
     18 N21        -21.1610    13.7340    -8.8430 n2         1 VK1      -0.832900
     19 O13        -14.5320    19.8490    -5.2070 os         1 VK1      -0.388600
     20 O22        -20.1680    16.0820    -9.4810 o          1 VK1      -0.585800
     21 S02        -21.0080    15.2320    -8.6320 s6         1 VK1       0.956600
     22 H1         -17.6730    20.8750    -5.6000 h1         1 VK1       0.088700
     23 H2         -16.2200    17.0120    -5.6250 h1         1 VK1       0.056700
     24 H3         -15.5540    17.9460    -6.9600 h1         1 VK1       0.056700
     25 H4         -21.1630    15.0660    -4.9290 hc         1 VK1       0.090950
     26 H5         -21.8810    13.9510    -6.1800 hc         1 VK1       0.090950
     27 H6         -19.5810    13.3230    -6.9600 hc         1 VK1       0.090950
     28 H7         -18.8470    14.4220    -5.7010 hc         1 VK1       0.090950
     29 H8         -17.8860    16.3280    -6.4580 ha         1 VK1       0.155000
     30 H9         -16.2950    21.8350    -7.4190 hc         1 VK1       0.047367
     31 H10        -15.6190    20.2490    -7.7870 hc         1 VK1       0.047367
     32 H11        -17.3400    20.5580    -8.0360 hc         1 VK1       0.047367
     33 H12        -15.3680    21.6930    -5.1100 h1         1 VK1       0.056200
     34 H13        -16.0250    20.5270    -3.9520 h1         1 VK1       0.056200
     35 H14        -15.1890    18.3460    -3.9540 h1         1 VK1       0.055700
     36 H15        -13.9570    17.9050    -5.1470 h1         1 VK1       0.055700
     37 H16        -21.7510    22.4570    -6.4120 h1         1 VK1       0.069700
     38 H17        -20.5170    21.7260    -5.3710 h1         1 VK1       0.069700
     39 H18        -20.2420    21.8610    -7.1240 h1         1 VK1       0.069700
     40 H19        -23.1760    15.4400    -8.0990 hn         1 VK1       0.417800
     41 H20        -22.4580    16.9200    -8.3370 hn         1 VK1       0.417800
     42 H21        -21.6300    13.5130    -9.7150 hn         1 VK1       0.439400
     43 S18        -21.8370    20.1180    -6.6090 ss         1 VK1      -0.269400
@<TRIPOS>BOND
     1     1    10 1   
     2     1    11 1   
     3     1    15 1   
     4     1    22 1   
     5     2    12 1   
     6     2    15 1   
     7     2    23 1   
     8     2    24 1   
     9     3    16 ar  
    10     3    17 ar  
    11     3    43 1   
    12     4     5 1   
    13     4     6 1   
    14     4     7 1   
    15     4    21 1   
    16     5     6 1   
    17     5    25 1   
    18     5    26 1   
    19     6    27 1   
    20     6    28 1   
    21     7     8 ar  
    22     7    17 ar  
    23     8     9 ar  
    24     8    29 1   
    25     9    15 1   
    26     9    16 ar  
    27    10    30 1   
    28    10    31 1   
    29    10    32 1   
    30    11    19 1   
    31    11    33 1   
    32    11    34 1   
    33    12    19 1   
    34    12    35 1   
    35    12    36 1   
    36    13    37 1   
    37    13    38 1   
    38    13    39 1   
    39    13    43 1   
    40    14    21 1   
    41    14    40 1   
    42    14    41 1   
    43    18    21 2   
    44    18    42 1   
    45    20    21 2   
@<TRIPOS>SUBSTRUCTURE
     1 VK1         1 TEMP              0 ****  ****    0 ROOT
