@<TRIPOS>MOLECULE
VK2
   55    59     1     0     0
SMALL
No Charge or Current Charge


@<TRIPOS>ATOM
      1 C1          26.7290    15.8990    20.6800 c3         1 VK2       0.286100
      2 C2          25.8270    15.9650    19.4720 cc         1 VK2      -0.154300
      3 C3          24.4030    15.9970    19.7060 cc         1 VK2      -0.095000
      4 N6          23.5860     6.2240    27.7350 na         1 VK2       0.164800
      5 C7          25.6870    16.0760    15.7930 cc         1 VK2      -0.291100
      6 C8          26.3400    15.9900    18.1760 cd         1 VK2      -0.098000
      7 C9          26.1440    14.1550    22.3610 cc         1 VK2       0.678900
      8 C10         25.4190    12.8950    23.8790 cc         1 VK2       0.466500
      9 C11         25.2280    11.6410    24.6350 ca         1 VK2      -0.132500
     10 C12         25.4450    10.4170    23.9650 ca         1 VK2      -0.080000
     11 C13         25.2400     9.1870    24.6070 ca         1 VK2      -0.112000
     12 C14         24.7930     9.1310    25.9390 ca         1 VK2       0.019000
     13 C15         24.5720    10.3510    26.6110 ca         1 VK2      -0.112000
     14 C16         24.7770    11.5970    25.9830 ca         1 VK2      -0.019300
     15 C19         25.1930     6.5730    26.4070 cc         1 VK2       0.266300
     16 C20         26.4130     6.3440    25.5590 c3         1 VK2      -0.121400
     17 C21         22.6740     5.4550    28.5990 c3         1 VK2       0.069900
     18 C22         23.5070     7.5910    27.4350 cd         1 VK2      -0.079000
     19 N7          21.5500     9.0880    28.2380 n1         1 VK2      -0.426000
     20 C23         22.4370     8.4260    27.8670 ch         1 VK2       0.340000
     21 N5          24.6360     5.5930    27.0870 nd         1 VK2      -0.505800
     22 C18         24.5800     7.8330    26.6110 cc         1 VK2      -0.099000
     23 C17         24.5400    12.8570    26.8140 c3         1 VK2      -0.053800
     24 O           26.2250    12.8750    22.7870 os         1 VK2      -0.312000
     25 N3          24.8830    14.0880    24.0980 nd         1 VK2      -0.334000
     26 N4          25.3610    14.9100    23.1090 nd         1 VK2      -0.447000
     27 N           26.8470    14.5380    21.2430 nh         1 VK2      -0.770300
     28 C           27.6670    13.5640    20.4900 c3         1 VK2       0.212100
     29 N2          25.4130    16.0450    17.1260 na         1 VK2       0.130100
     30 C6          24.4150    16.1280    15.2210 cd         1 VK2      -0.027400
     31 N1          23.3830    16.1290    16.1740 nd         1 VK2      -0.286600
     32 C5          24.0780    16.0750    17.3510 cd         1 VK2      -0.079000
     33 C4          23.5140    16.0520    18.6600 cd         1 VK2      -0.072000
     34 H1          27.7260    16.2650    20.3950 h1         1 VK2       0.077200
     35 H2          26.3600    16.6070    21.4350 h1         1 VK2       0.077200
     36 H3          24.0340    15.9730    20.7280 ha         1 VK2       0.144000
     37 H4          26.6860    16.0610    15.3720 h4         1 VK2       0.230000
     38 H5          27.3910    15.9670    17.9170 h4         1 VK2       0.140000
     39 H6          25.7660    10.4090    22.9250 ha         1 VK2       0.124000
     40 H7          25.3930     8.2760    24.0370 ha         1 VK2       0.120000
     41 H8          24.2750    10.3390    27.6550 ha         1 VK2       0.121000
     42 H9          27.0060     5.5070    25.9460 hc         1 VK2       0.052367
     43 H10         26.1330     6.1030    24.5270 hc         1 VK2       0.052367
     44 H11         27.0620     7.2270    25.5490 hc         1 VK2       0.052367
     45 H12         23.0340     4.4250    28.7000 h1         1 VK2       0.066033
     46 H13         22.6300     5.9200    29.5910 h1         1 VK2       0.066033
     47 H14         21.6720     5.4460    28.1550 h1         1 VK2       0.066033
     48 H15         23.6460    13.3930    26.4740 hc         1 VK2       0.056033
     49 H16         24.3900    12.6260    27.8760 hc         1 VK2       0.056033
     50 H17         25.3950    13.5400    26.7580 hc         1 VK2       0.056033
     51 H18         28.4000    13.0850    21.1530 h1         1 VK2       0.047367
     52 H19         27.0280    12.7820    20.0570 h1         1 VK2       0.047367
     53 H20         28.2140    14.0510    19.6720 h1         1 VK2       0.047367
     54 H21         24.1820    16.1650    14.1580 h4         1 VK2       0.227000
     55 H22         22.4410    16.0750    18.8220 ha         1 VK2       0.147000
@<TRIPOS>BOND
     1     1     2 1   
     2     1    27 1   
     3     1    34 1   
     4     1    35 1   
     5     2     3 1   
     6     2     6 2   
     7     3    33 2   
     8     3    36 1   
     9     4    17 1   
    10     4    18 1   
    11     4    21 1   
    12     5    29 1   
    13     5    30 2   
    14     5    37 1   
    15     6    29 1   
    16     6    38 1   
    17     7    24 1   
    18     7    26 2   
    19     7    27 1   
    20     8     9 1   
    21     8    24 1   
    22     8    25 2   
    23     9    10 ar  
    24     9    14 ar  
    25    10    11 ar  
    26    10    39 1   
    27    11    12 ar  
    28    11    40 1   
    29    12    13 ar  
    30    12    22 1   
    31    13    14 ar  
    32    13    41 1   
    33    14    23 1   
    34    15    16 1   
    35    15    21 2   
    36    15    22 1   
    37    16    42 1   
    38    16    43 1   
    39    16    44 1   
    40    17    45 1   
    41    17    46 1   
    42    17    47 1   
    43    18    20 1   
    44    18    22 2   
    45    19    20 3   
    46    23    48 1   
    47    23    49 1   
    48    23    50 1   
    49    25    26 1   
    50    27    28 1   
    51    28    51 1   
    52    28    52 1   
    53    28    53 1   
    54    29    32 1   
    55    30    31 1   
    56    30    54 1   
    57    31    32 2   
    58    32    33 1   
    59    33    55 1   
@<TRIPOS>SUBSTRUCTURE
     1 VK2         1 TEMP              0 ****  ****    0 ROOT
