@<TRIPOS>MOLECULE
VK2
   55    59     1     0     0
SMALL
bcc


@<TRIPOS>ATOM
      1 C1          27.0070    15.7280    20.6260 c3         1 VK2       0.286100
      2 C2          25.9220    15.8710    19.5940 cc         1 VK2      -0.154300
      3 C3          24.5510    15.9210    19.9790 cc         1 VK2      -0.113000
      4 N6          23.5060     6.3320    27.5890 na         1 VK2       0.143400
      5 C7          25.3210    16.0430    15.9730 cc         1 VK2      -0.241100
      6 C8          26.2410    15.9090    18.2740 cd         1 VK2      -0.065300
      7 C9          26.4180    14.1090    22.3030 cc         1 VK2       0.723300
      8 C10         25.6530    12.9250    23.8890 cc         1 VK2       0.510900
      9 C11         25.3650    11.6890    24.5980 ca         1 VK2      -0.132500
     10 C12         25.7110    10.4790    23.9880 ca         1 VK2      -0.098000
     11 C13         25.4440     9.2690    24.5960 ca         1 VK2      -0.130000
     12 C14         24.8220     9.2320    25.8420 ca         1 VK2       0.019000
     13 C15         24.4940    10.4410    26.4520 ca         1 VK2      -0.130000
     14 C16         24.7470    11.6740    25.8610 ca         1 VK2      -0.019300
     15 C19         25.3040     6.7900    26.5520 cc         1 VK2       0.331600
     16 C20         26.6750     6.5700    26.0140 c3         1 VK2      -0.121400
     17 C21         22.5330     5.5010    28.2620 c3         1 VK2       0.040600
     18 C22         23.3580     7.6070    27.1650 cd         1 VK2      -0.028300
     19 N7          21.2270     8.9750    27.5710 n1         1 VK2      -0.336800
     20 C23         22.1840     8.3560    27.3920 ch         1 VK2       0.250800
     21 N5          24.6710     5.8400    27.2230 nd         1 VK2      -0.505800
     22 C18         24.5130     7.9550    26.4800 cc         1 VK2      -0.164300
     23 C17         24.3580    12.9180    26.6030 c3         1 VK2      -0.053800
     24 O           26.3310    12.8400    22.7100 os         1 VK2      -0.400800
     25 N3          25.3620    14.1470    24.1540 nd         1 VK2      -0.334000
     26 N4          25.8430    14.9270    23.1370 nd         1 VK2      -0.447000
     27 N           27.0760    14.3810    21.1710 nh         1 VK2      -0.770300
     28 C           27.4880    13.3130    20.2780 c3         1 VK2       0.212100
     29 N2          25.2520    15.9930    17.3400 na         1 VK2       0.028700
     30 C6          24.0200    16.1160    15.5540 cd         1 VK2       0.022600
     31 N1          23.1540    16.1140    16.5970 nd         1 VK2      -0.286600
     32 C5          23.9100    16.0390    17.6760 cd         1 VK2      -0.028300
     33 C4          23.5650    16.0030    19.0440 cd         1 VK2      -0.090000
     34 H1          27.9790    15.9590    20.1850 h1         1 VK2       0.077200
     35 H2          26.8530    16.4280    21.4460 h1         1 VK2       0.077200
     36 H3          24.2970    15.9010    21.0310 ha         1 VK2       0.162000
     37 H4          26.2580    16.0210    15.4420 h4         1 VK2       0.180000
     38 H5          27.2560    15.8750    17.9020 h4         1 VK2       0.158000
     39 H6          26.1830    10.4700    23.0160 ha         1 VK2       0.142000
     40 H7          25.6980     8.3520    24.0810 ha         1 VK2       0.138000
     41 H8          24.0420    10.4330    27.4360 ha         1 VK2       0.139000
     42 H9          27.1700     5.7630    26.5510 hc         1 VK2       0.052367
     43 H10         26.6520     6.3000    24.9570 hc         1 VK2       0.052367
     44 H11         27.2820     7.4690    26.1070 hc         1 VK2       0.052367
     45 H12         23.0570     4.8210    28.9270 h1         1 VK2       0.066033
     46 H13         21.8630     6.1220    28.8510 h1         1 VK2       0.066033
     47 H14         21.9520     4.9290    27.5410 h1         1 VK2       0.066033
     48 H15         23.6080    13.4930    26.0600 hc         1 VK2       0.056033
     49 H16         23.9460    12.6610    27.5780 hc         1 VK2       0.056033
     50 H17         25.2090    13.5810    26.7580 hc         1 VK2       0.056033
     51 H18         27.9840    12.5150    20.8250 h1         1 VK2       0.047367
     52 H19         26.6530    12.8910    19.7150 h1         1 VK2       0.047367
     53 H20         28.2050    13.7220    19.5700 h1         1 VK2       0.047367
     54 H21         23.6750    16.1700    14.5320 h4         1 VK2       0.177000
     55 H22         22.5210    16.0480    19.3200 ha         1 VK2       0.165000
@<TRIPOS>BOND
     1     1     2 1   
     2     1    27 1   
     3     1    34 1   
     4     1    35 1   
     5     2     3 1   
     6     2     6 2   
     7     3    33 2   
     8     3    36 1   
     9     4    17 1   
    10     4    18 1   
    11     4    21 1   
    12     5    29 1   
    13     5    30 2   
    14     5    37 1   
    15     6    29 1   
    16     6    38 1   
    17     7    24 1   
    18     7    26 2   
    19     7    27 1   
    20     8     9 1   
    21     8    24 1   
    22     8    25 2   
    23     9    10 ar  
    24     9    14 ar  
    25    10    11 ar  
    26    10    39 1   
    27    11    12 ar  
    28    11    40 1   
    29    12    13 ar  
    30    12    22 1   
    31    13    14 ar  
    32    13    41 1   
    33    14    23 1   
    34    15    16 1   
    35    15    21 2   
    36    15    22 1   
    37    16    42 1   
    38    16    43 1   
    39    16    44 1   
    40    17    45 1   
    41    17    46 1   
    42    17    47 1   
    43    18    20 1   
    44    18    22 2   
    45    19    20 3   
    46    23    48 1   
    47    23    49 1   
    48    23    50 1   
    49    25    26 1   
    50    27    28 1   
    51    28    51 1   
    52    28    52 1   
    53    28    53 1   
    54    29    32 1   
    55    30    31 1   
    56    30    54 1   
    57    31    32 2   
    58    32    33 1   
    59    33    55 1   
@<TRIPOS>SUBSTRUCTURE
     1 VK2         1 TEMP              0 ****  ****    0 ROOT
