@<TRIPOS>MOLECULE
VK3
   21    22     1     0     0
SMALL
bcc


@<TRIPOS>ATOM
      1 C1K          1.7030     0.0120     0.2390 c          1 VK3       0.572900
      2 O1K          2.8820     0.0180    -0.0540 o          1 VK3      -0.505100
      3 C2K          1.2840     0.0080     1.6480 cc         1 VK3      -0.203200
      4 C3K          0.0020    -0.0010     2.0380 cd         1 VK3      -0.120400
      5 C4K         -1.0820    -0.0070     1.0180 c          1 VK3       0.569900
      6 O4K         -2.2440    -0.0180     1.3650 o          1 VK3      -0.503100
      7 C5K         -0.7030    -0.0010    -0.4160 ca         1 VK3      -0.135600
      8 C6K         -1.6960    -0.0040    -1.3900 ca         1 VK3      -0.083000
      9 C7K         -1.3490     0.0010    -2.7330 ca         1 VK3      -0.117000
     10 C8K         -0.0120     0.0100    -3.1090 ca         1 VK3      -0.115000
     11 C9K          0.9820     0.0140    -2.1430 ca         1 VK3      -0.083000
     12 C10          0.6420     0.0080    -0.7950 ca         1 VK3      -0.135600
     13 C11         -0.4110    -0.0050     3.4690 c3         1 VK3      -0.056900
     14 H2K1         2.0830     0.0130     2.3810 ha         1 VK3       0.154000
     15 H6K1        -2.7380    -0.0110    -1.1010 ha         1 VK3       0.156000
     16 H7K1        -2.1240    -0.0010    -3.4870 ha         1 VK3       0.139000
     17 H8K1         0.2550     0.0150    -4.1570 ha         1 VK3       0.140000
     18 H9K1         2.0230     0.0210    -2.4370 ha         1 VK3       0.156000
     19 H111         0.4570     0.0080     4.1240 hc         1 VK3       0.056700
     20 H112        -1.0320     0.8610     3.7000 hc         1 VK3       0.056700
     21 H113        -1.0040    -0.8910     3.7010 hc         1 VK3       0.056700
@<TRIPOS>BOND
     1     1     2 2   
     2     1     3 1   
     3     1    12 1   
     4     3     4 2   
     5     3    14 1   
     6     4     5 1   
     7     4    13 1   
     8     5     6 2   
     9     5     7 1   
    10     7     8 ar  
    11     7    12 ar  
    12     8     9 ar  
    13     8    15 1   
    14     9    10 ar  
    15     9    16 1   
    16    10    11 ar  
    17    10    17 1   
    18    11    12 ar  
    19    11    18 1   
    20    13    19 1   
    21    13    20 1   
    22    13    21 1   
@<TRIPOS>SUBSTRUCTURE
     1 VK3         1 TEMP              0 ****  ****    0 ROOT
