@<TRIPOS>MOLECULE
VK3
   21    22     1     0     0
SMALL
No Charge or Current Charge


@<TRIPOS>ATOM
      1 C1K          1.7510     0.0140     0.2480 c          1 VK3       0.572900
      2 O1K          2.9370     0.0230    -0.0570 o          1 VK3      -0.505100
      3 C2K          1.3170     0.0090     1.6540 cc         1 VK3      -0.253200
      4 C3K         -0.0080    -0.0010     2.0560 cd         1 VK3      -0.120400
      5 C4K         -1.1150    -0.0060     1.0500 c          1 VK3       0.569900
      6 O4K         -2.2960    -0.0150     1.3810 o          1 VK3      -0.503100
      7 C5K         -0.7150    -0.0010    -0.4090 ca         1 VK3      -0.135600
      8 C6K         -1.7130    -0.0050    -1.4110 ca         1 VK3      -0.065000
      9 C7K         -1.3630    -0.0000    -2.7710 ca         1 VK3      -0.099000
     10 C8K         -0.0120     0.0100    -3.1470 ca         1 VK3      -0.097000
     11 C9K          0.9900     0.0140    -2.1630 ca         1 VK3      -0.065000
     12 C10          0.6530     0.0090    -0.7900 ca         1 VK3      -0.135600
     13 C11         -0.4230    -0.0070     3.5120 c3         1 VK3      -0.056900
     14 H2K1         2.1280     0.0130     2.3730 ha         1 VK3       0.204000
     15 H6K1        -2.7670    -0.0130    -1.1400 ha         1 VK3       0.138000
     16 H7K1        -2.1400    -0.0040    -3.5320 ha         1 VK3       0.121000
     17 H8K1         0.2600     0.0140    -4.2000 ha         1 VK3       0.122000
     18 H9K1         2.0330     0.0220    -2.4750 ha         1 VK3       0.138000
     19 H111         0.4460    -0.0030     4.1800 hc         1 VK3       0.056700
     20 H112        -1.0280     0.8750     3.7540 hc         1 VK3       0.056700
     21 H113        -1.0170    -0.8980     3.7510 hc         1 VK3       0.056700
@<TRIPOS>BOND
     1     1     2 2   
     2     1     3 1   
     3     1    12 1   
     4     3     4 2   
     5     3    14 1   
     6     4     5 1   
     7     4    13 1   
     8     5     6 2   
     9     5     7 1   
    10     7     8 ar  
    11     7    12 ar  
    12     8     9 ar  
    13     8    15 1   
    14     9    10 ar  
    15     9    16 1   
    16    10    11 ar  
    17    10    17 1   
    18    11    12 ar  
    19    11    18 1   
    20    13    19 1   
    21    13    20 1   
    22    13    21 1   
@<TRIPOS>SUBSTRUCTURE
     1 VK3         1 TEMP              0 ****  ****    0 ROOT
