@<TRIPOS>MOLECULE
VK5
   77    82     1     0     0
SMALL
bcc


@<TRIPOS>ATOM
      1 C1          32.3830    17.1500    14.3760 c3         1 VK5       0.149600
      2 C2          30.8290    16.3580    12.7290 c3         1 VK5       0.209100
      3 C3          29.5880    16.5440    13.5610 ca         1 VK5      -0.079300
      4 N6          25.0570     6.1650    27.5230 nc         1 VK5      -0.522800
      5 C7          27.6830    17.8640    14.2460 ca         1 VK5      -0.124500
      6 C8          28.8280    17.7040    13.4790 ca         1 VK5      -0.113000
      7 C9          26.0240    17.0280    15.8710 cc         1 VK5      -0.136300
      8 C10         24.7950    17.4950    15.4690 cd         1 VK5       0.036600
      9 C11         24.5300    16.9920    17.5140 cc         1 VK5      -0.021300
     10 C12         24.0860    16.7570    18.8320 cc         1 VK5      -0.097000
     11 C13         24.9620    16.2830    19.7580 cd         1 VK5      -0.104000
     12 C14         26.3220    16.0380    19.4120 cd         1 VK5      -0.146300
     13 C15         27.2960    15.5400    20.4430 c3         1 VK5       0.293100
     14 C16         27.3650    13.1010    20.0070 c3         1 VK5       0.219100
     15 C19         25.3980    11.7970    24.5890 ca         1 VK5       0.361300
     16 C20         25.5310     9.5160    24.7130 ca         1 VK5       0.400200
     17 C21         24.9300     9.4740    25.9740 ca         1 VK5      -0.073300
     18 C22         24.5610    10.7020    26.5180 ca         1 VK5      -0.115000
     19 C31         26.7340    16.2540    18.1370 cc         1 VK5      -0.064300
     20 C29         23.5930     7.8450    27.4100 cc         1 VK5      -0.059600
     21 N7          23.8560     6.6180    27.8900 na         1 VK5       0.115400
     22 C28         22.9870     5.8040    28.7040 c3         1 VK5       0.038600
     23 C26         25.5910     7.1130    26.7800 cd         1 VK5       0.347600
     24 C25         24.7090     8.2150    26.6740 cd         1 VK5      -0.238300
     25 N5          25.7610    10.6330    24.0530 nb         1 VK5      -0.648000
     26 C23         24.7740    11.8960    25.8410 ca         1 VK5      -0.132600
     27 C18         25.7040    12.9650    23.7750 cc         1 VK5       0.400400
     28 O           26.2840    12.7670    22.5600 os         1 VK5      -0.364800
     29 N3          25.5270    14.2160    23.9990 nd         1 VK5      -0.336000
     30 N4          25.9850    14.9070    22.9130 nd         1 VK5      -0.459000
     31 C17         26.4310    14.0060    22.0820 cc         1 VK5       0.732300
     32 N2          26.9920    14.1900    20.8850 nh         1 VK5      -0.786300
     33 N8          25.8490    16.7060    17.2000 na         1 VK5       0.035700
     34 N1          23.8850    17.4700    16.4670 nd         1 VK5      -0.288600
     35 C6          27.2610    16.8580    15.1150 ca         1 VK5      -0.015800
     36 C5          28.0210    15.6870    15.1900 ca         1 VK5      -0.124500
     37 C4          29.1690    15.5390    14.4310 ca         1 VK5      -0.113000
     38 N           31.9890    16.0380    13.5370 n3         1 VK5      -0.714600
     39 C           33.0920    15.5850    12.7190 c3         1 VK5       0.149600
     40 H1          33.2190    16.8580    15.0120 h1         1 VK5       0.032033
     41 H2          32.6930    18.0350    13.7990 h1         1 VK5       0.032033
     42 H3          31.5610    17.4480    15.0280 h1         1 VK5       0.032033
     43 H4          30.6660    15.5270    12.0350 h1         1 VK5       0.039200
     44 H5          30.9910    17.2520    12.1030 h1         1 VK5       0.039200
     45 H6          27.1180    18.7860    14.1810 ha         1 VK5       0.134000
     46 H7          29.1390    18.5030    12.8150 ha         1 VK5       0.137500
     47 H8          24.5380    17.8310    14.4740 h4         1 VK5       0.178000
     48 H9          23.0550    16.9710    19.0770 ha         1 VK5       0.164000
     49 H10         24.6330    16.1100    20.7750 ha         1 VK5       0.162000
     50 H11         28.3090    15.5440    20.0340 h1         1 VK5       0.072200
     51 H12         27.3000    16.2010    21.3100 h1         1 VK5       0.072200
     52 H13         26.8730    12.1750    20.2900 h1         1 VK5       0.049033
     53 H14         27.0620    13.3380    18.9870 h1         1 VK5       0.049033
     54 H15         28.4450    12.9420    20.0170 h1         1 VK5       0.049033
     55 H16         25.8270     8.5980    24.2180 h4         1 VK5       0.027100
     56 H17         24.1110    10.7370    27.5030 ha         1 VK5       0.139000
     57 H18         23.6430    13.7260    25.8370 hc         1 VK5       0.056033
     58 H19         23.8700    12.9980    27.4280 hc         1 VK5       0.056033
     59 H20         25.1930    13.8550    26.6350 hc         1 VK5       0.056033
     60 H21         27.5080     6.1810    26.7280 hc         1 VK5       0.050367
     61 H22         26.9190     6.6730    25.1460 hc         1 VK5       0.050367
     62 H23         27.5250     7.8830    26.2640 hc         1 VK5       0.050367
     63 H24         21.4570     7.8650    27.5620 hc         1 VK5       0.054700
     64 H25         22.2670     8.9690    28.6680 hc         1 VK5       0.054700
     65 H26         22.1640     9.3560    26.9540 hc         1 VK5       0.054700
     66 H27         27.7540    16.1030    17.8150 h4         1 VK5       0.166000
     67 H28         23.5370     4.9190    29.0080 h1         1 VK5       0.058033
     68 H29         22.6700     6.3460    29.5940 h1         1 VK5       0.058033
     69 H30         22.1020     5.4950    28.1480 h1         1 VK5       0.058033
     70 H31         27.7030    14.8690    15.8250 ha         1 VK5       0.134000
     71 H32         29.7450    14.6250    14.5070 ha         1 VK5       0.137500
     72 H34         33.9280    15.2860    13.3530 h1         1 VK5       0.032033
     73 H35         32.7920    14.7150    12.1320 h1         1 VK5       0.032033
     74 H36         33.4620    16.3510    12.0200 h1         1 VK5       0.032033
     75 C24         24.3480    13.1870    26.4690 c3         1 VK5      -0.046800
     76 C27         26.9550     6.9560    26.2000 c3         1 VK5      -0.123400
     77 C30         22.3050     8.5430    27.6630 c3         1 VK5      -0.036800
@<TRIPOS>BOND
     1     1    38 1   
     2     1    40 1   
     3     1    41 1   
     4     1    42 1   
     5     2     3 1   
     6     2    38 1   
     7     2    43 1   
     8     2    44 1   
     9     3     6 ar  
    10     3    37 ar  
    11     4    21 1   
    12     4    23 2   
    13     5     6 ar  
    14     5    35 ar  
    15     5    45 1   
    16     6    46 1   
    17     7     8 2   
    18     7    33 1   
    19     7    35 1   
    20     8    34 1   
    21     8    47 1   
    22     9    10 1   
    23     9    33 1   
    24     9    34 2   
    25    10    11 2   
    26    10    48 1   
    27    11    12 1   
    28    11    49 1   
    29    12    13 1   
    30    12    19 2   
    31    13    32 1   
    32    13    50 1   
    33    13    51 1   
    34    14    32 1   
    35    14    52 1   
    36    14    53 1   
    37    14    54 1   
    38    15    25 ar  
    39    15    26 ar  
    40    15    27 1   
    41    16    17 ar  
    42    16    25 ar  
    43    16    55 1   
    44    17    18 ar  
    45    17    24 1   
    46    18    26 ar  
    47    18    56 1   
    48    19    33 1   
    49    19    66 1   
    50    20    21 1   
    51    20    24 2   
    52    20    77 1   
    53    21    22 1   
    54    22    67 1   
    55    22    68 1   
    56    22    69 1   
    57    23    24 1   
    58    23    76 1   
    59    26    75 1   
    60    27    28 1   
    61    27    29 2   
    62    28    31 1   
    63    29    30 1   
    64    30    31 2   
    65    31    32 1   
    66    35    36 ar  
    67    36    37 ar  
    68    36    70 1   
    69    37    71 1   
    70    38    39 1   
    71    39    72 1   
    72    39    73 1   
    73    39    74 1   
    74    57    75 1   
    75    58    75 1   
    76    59    75 1   
    77    60    76 1   
    78    61    76 1   
    79    62    76 1   
    80    63    77 1   
    81    64    77 1   
    82    65    77 1   
@<TRIPOS>SUBSTRUCTURE
     1 VK5         1 TEMP              0 ****  ****    0 ROOT
