@<TRIPOS>MOLECULE
VK5
   77    82     1     0     0
SMALL
No Charge or Current Charge


@<TRIPOS>ATOM
      1 C1          32.0840    16.7170    14.0270 c3         1 VK5       0.149600
      2 C2          30.4750    15.0940    13.0730 c3         1 VK5       0.209100
      3 C3          29.2930    15.5740    13.9110 ca         1 VK5      -0.079300
      4 N6          25.4350     6.0510    26.7170 nc         1 VK5      -0.522800
      5 C7          27.4550    17.1360    14.2910 ca         1 VK5      -0.106500
      6 C8          28.5440    16.6980    13.5150 ca         1 VK5      -0.095000
      7 C9          25.9650    16.9200    16.2720 cc         1 VK5      -0.136300
      8 C10         24.7630    17.3350    15.7320 cd         1 VK5      -0.013400
      9 C11         24.4830    17.3840    17.8830 cc         1 VK5      -0.072000
     10 C12         24.0530    17.5410    19.2250 cc         1 VK5      -0.079000
     11 C13         24.9500    17.2750    20.2320 cd         1 VK5      -0.086000
     12 C14         26.3190    16.9160    19.9070 cd         1 VK5      -0.146300
     13 C15         27.3070    16.7030    21.0290 c3         1 VK5       0.293100
     14 C16         28.1970    14.3660    20.6650 c3         1 VK5       0.219100
     15 C19         25.4420    12.1250    24.4720 ca         1 VK5       0.296000
     16 C20         25.9110     9.8240    24.4590 ca         1 VK5       0.334900
     17 C21         25.0440     9.5510    25.5370 ca         1 VK5      -0.008000
     18 C22         24.3570    10.6470    26.0920 ca         1 VK5      -0.097000
     19 C31         26.7380    16.7860    18.5770 cc         1 VK5      -0.097000
     20 C29         23.7690     7.6650    26.7200 cc         1 VK5      -0.110300
     21 N7          24.1500     6.3710    27.0800 na         1 VK5       0.136800
     22 C28         23.3270     5.3800    27.7920 c3         1 VK5       0.067900
     23 C26         25.8580     7.1460    26.1210 cd         1 VK5       0.282300
     24 C25         24.8680     8.1700    26.0590 cd         1 VK5      -0.173000
     25 N5          26.1040    11.0570    23.9400 nb         1 VK5      -0.648000
     26 C23         24.5460    11.9440    25.5700 ca         1 VK5      -0.067300
     27 C18         25.7150    13.4510    23.8420 cc         1 VK5       0.356000
     28 O           26.5910    13.5110    22.7980 os         1 VK5      -0.276000
     29 N3          25.2190    14.6460    24.1470 nd         1 VK5      -0.336000
     30 N4          25.7860    15.5370    23.2730 nd         1 VK5      -0.459000
     31 C17         26.5830    14.8280    22.4960 cc         1 VK5       0.687900
     32 N2          27.3670    15.2930    21.4650 nh         1 VK5      -0.786300
     33 N8          25.7260    16.8950    17.6170 na         1 VK5       0.137100
     34 N1          23.8480    17.6230    16.7460 nd         1 VK5      -0.288600
     35 C6          27.1040    16.4610    15.4760 ca         1 VK5      -0.015800
     36 C5          27.8480    15.3290    15.8630 ca         1 VK5      -0.106500
     37 C4          28.9360    14.8900    15.0880 ca         1 VK5      -0.095000
     38 N           31.7910    15.2950    13.7290 n3         1 VK5      -0.714600
     39 C           32.8930    14.6390    12.9910 c3         1 VK5       0.149600
     40 H1          33.0470    16.8140    14.5450 h1         1 VK5       0.032033
     41 H2          32.1300    17.3090    13.1040 h1         1 VK5       0.032033
     42 H3          31.3130    17.1510    14.6770 h1         1 VK5       0.032033
     43 H4          30.3250    14.0250    12.8670 h1         1 VK5       0.039200
     44 H5          30.4600    15.6060    12.1000 h1         1 VK5       0.039200
     45 H6          26.8930    18.0100    13.9730 ha         1 VK5       0.116000
     46 H7          28.8060    17.2370    12.6080 ha         1 VK5       0.119500
     47 H8          24.5020    17.4350    14.6820 h4         1 VK5       0.228000
     48 H9          23.0420    17.8750    19.4350 ha         1 VK5       0.146000
     49 H10         24.6410    17.3800    21.2680 ha         1 VK5       0.144000
     50 H11         28.3000    17.0330    20.6930 h1         1 VK5       0.072200
     51 H12         27.0420    17.3600    21.8690 h1         1 VK5       0.072200
     52 H13         27.5590    13.6720    20.1020 h1         1 VK5       0.049033
     53 H14         28.8260    14.9110    19.9480 h1         1 VK5       0.049033
     54 H15         28.8570    13.7800    21.3180 h1         1 VK5       0.049033
     55 H16         26.4480     9.0250    23.9540 h4         1 VK5       0.027100
     56 H17         23.7090    10.5090    26.9500 ha         1 VK5       0.121000
     57 H18         23.1090    13.5840    25.5140 hc         1 VK5       0.056033
     58 H19         23.1480    12.7380    27.0570 hc         1 VK5       0.056033
     59 H20         24.4580    13.8400    26.6460 hc         1 VK5       0.056033
     60 H21         27.9080     6.4590    26.1700 hc         1 VK5       0.050367
     61 H22         27.3600     7.0000    24.5800 hc         1 VK5       0.050367
     62 H23         27.7330     8.1840    25.8540 hc         1 VK5       0.050367
     63 H24         21.6280     7.4610    26.9980 hc         1 VK5       0.054700
     64 H25         22.3600     8.7840    27.9190 hc         1 VK5       0.054700
     65 H26         22.1080     8.9360    26.1640 hc         1 VK5       0.054700
     66 H27         27.7430    16.5670    18.2470 h4         1 VK5       0.148000
     67 H28         23.9430     4.5230    28.0910 h1         1 VK5       0.058033
     68 H29         22.8940     5.8400    28.6880 h1         1 VK5       0.058033
     69 H30         22.5220     5.0350    27.1340 h1         1 VK5       0.058033
     70 H31         27.5770    14.7740    16.7580 ha         1 VK5       0.116000
     71 H32         29.5040    14.0170    15.4010 ha         1 VK5       0.119500
     72 H34         33.8400    14.7350    13.5400 h1         1 VK5       0.032033
     73 H35         32.6880    13.5680    12.8580 h1         1 VK5       0.032033
     74 H36         33.0240    15.0910    11.9990 h1         1 VK5       0.032033
     75 C24         23.7760    13.0890    26.2300 c3         1 VK5      -0.046800
     76 C27         27.2890     7.2030    25.6540 c3         1 VK5      -0.123400
     77 C30         22.3950     8.2440    26.9650 c3         1 VK5      -0.036800
@<TRIPOS>BOND
     1     1    38 1   
     2     1    40 1   
     3     1    41 1   
     4     1    42 1   
     5     2     3 1   
     6     2    38 1   
     7     2    43 1   
     8     2    44 1   
     9     3     6 ar  
    10     3    37 ar  
    11     4    21 1   
    12     4    23 2   
    13     5     6 ar  
    14     5    35 ar  
    15     5    45 1   
    16     6    46 1   
    17     7     8 2   
    18     7    33 1   
    19     7    35 1   
    20     8    34 1   
    21     8    47 1   
    22     9    10 1   
    23     9    33 1   
    24     9    34 2   
    25    10    11 2   
    26    10    48 1   
    27    11    12 1   
    28    11    49 1   
    29    12    13 1   
    30    12    19 2   
    31    13    32 1   
    32    13    50 1   
    33    13    51 1   
    34    14    32 1   
    35    14    52 1   
    36    14    53 1   
    37    14    54 1   
    38    15    25 ar  
    39    15    26 ar  
    40    15    27 1   
    41    16    17 ar  
    42    16    25 ar  
    43    16    55 1   
    44    17    18 ar  
    45    17    24 1   
    46    18    26 ar  
    47    18    56 1   
    48    19    33 1   
    49    19    66 1   
    50    20    21 1   
    51    20    24 2   
    52    20    77 1   
    53    21    22 1   
    54    22    67 1   
    55    22    68 1   
    56    22    69 1   
    57    23    24 1   
    58    23    76 1   
    59    26    75 1   
    60    27    28 1   
    61    27    29 2   
    62    28    31 1   
    63    29    30 1   
    64    30    31 2   
    65    31    32 1   
    66    35    36 ar  
    67    36    37 ar  
    68    36    70 1   
    69    37    71 1   
    70    38    39 1   
    71    39    72 1   
    72    39    73 1   
    73    39    74 1   
    74    57    75 1   
    75    58    75 1   
    76    59    75 1   
    77    60    76 1   
    78    61    76 1   
    79    62    76 1   
    80    63    77 1   
    81    64    77 1   
    82    65    77 1   
@<TRIPOS>SUBSTRUCTURE
     1 VK5         1 TEMP              0 ****  ****    0 ROOT
