@<TRIPOS>MOLECULE
VK6
   43    45     1     0     0
SMALL
No Charge or Current Charge


@<TRIPOS>ATOM
      1 C13         25.4650   -23.7430     5.4450 c5         1 VK6       0.227800
      2 C17         30.1750   -21.9870     5.4890 ca         1 VK6      -0.016500
      3 C20         31.3840   -24.1400     4.1400 ca         1 VK6      -0.133000
      4 C21         30.1800   -24.3390     4.8370 ca         1 VK6      -0.016500
      5 C24         26.9700   -22.6370     4.0130 c5         1 VK6       0.205800
      6 C02         19.6130   -27.0380     8.1830 c          1 VK6       0.735000
      7 C04         20.7350   -25.8950     6.2260 cc         1 VK6       0.172800
      8 C07         20.2120   -26.7700     5.2950 cd         1 VK6      -0.237400
      9 C09         21.8160   -25.2430     4.2670 cc         1 VK6       0.614100
     10 C11         23.9530   -24.7820     3.7030 c          1 VK6       0.715500
     11 C12         24.7450   -23.5130     4.0840 c5         1 VK6      -0.137700
     12 C16         29.5730   -23.2630     5.5170 ca         1 VK6      -0.300500
     13 C18         31.3800   -21.7960     4.7900 ca         1 VK6      -0.133000
     14 C19         31.9850   -22.8700     4.1160 ca         1 VK6      -0.062000
     15 C25         25.9050   -23.2420     3.0780 c5         1 VK6      -0.070400
     16 N05         21.6340   -24.9960     5.6310 na         1 VK6      -0.357900
     17 N10         22.5870   -24.5640     3.4820 nf         1 VK6      -0.850100
     18 N14         26.9030   -23.6010     5.1230 n3         1 VK6      -0.749500
     19 O01         18.3960   -27.0020     8.0760 o          1 VK6      -0.718500
     20 O06         22.2770   -23.9510     6.3480 oh         1 VK6      -0.371300
     21 O22         27.6860   -22.3340     7.1880 o          1 VK6      -0.543500
     22 O23         28.0550   -24.8710     6.9760 o          1 VK6      -0.543500
     23 O26         24.4150   -25.9030     3.5540 o          1 VK6      -0.632100
     24 O27         20.2320   -28.0360     8.5200 o          1 VK6      -0.718500
     25 S08         20.8100   -26.5310     3.6670 ss         1 VK6      -0.001800
     26 S15         28.0200   -23.5240     6.3950 sy         1 VK6       1.168600
     27 H1          25.1430   -22.9850     6.1730 h1         1 VK6       0.069700
     28 H2          25.2430   -24.7280     5.8820 h1         1 VK6       0.069700
     29 H3          29.7160   -21.1440     6.0030 ha         1 VK6       0.135000
     30 H4          31.8500   -24.9710     3.6160 ha         1 VK6       0.116000
     31 H5          29.7190   -25.3260     4.8430 ha         1 VK6       0.135000
     32 H6          27.9560   -22.6040     3.5290 h1         1 VK6       0.050700
     33 H7          26.7070   -21.6190     4.3370 h1         1 VK6       0.050700
     34 H8          19.8150   -24.9200     7.8350 hc         1 VK6       0.056700
     35 H9          21.3720   -25.8020     8.2220 hc         1 VK6       0.056700
     36 H10         19.4860   -27.5560     5.4760 h4         1 VK6       0.281000
     37 H12         24.0670   -22.6550     4.1490 hc         1 VK6       0.065700
     38 H13         31.8430   -20.8120     4.7690 ha         1 VK6       0.116000
     39 H14         32.9170   -22.7190     3.5750 ha         1 VK6       0.112000
     40 H15         25.6170   -22.5620     2.2690 hc         1 VK6       0.066200
     41 H16         26.2810   -24.1630     2.6160 hc         1 VK6       0.066200
     42 H17         21.7250   -23.1410     6.2440 ho         1 VK6       0.485000
     43 C03         20.4110   -25.8290     7.6960 c3         1 VK6      -0.179200
@<TRIPOS>BOND
     1     1    11 1   
     2     1    18 1   
     3     1    27 1   
     4     1    28 1   
     5     2    12 ar  
     6     2    13 ar  
     7     2    29 1   
     8     3     4 ar  
     9     3    14 ar  
    10     3    30 1   
    11     4    12 ar  
    12     4    31 1   
    13     5    15 1   
    14     5    18 1   
    15     5    32 1   
    16     5    33 1   
    17     6    19 1   
    18     6    24 1   
    19     6    43 1   
    20     7     8 2   
    21     7    16 1   
    22     7    43 1   
    23     8    25 1   
    24     8    36 1   
    25     9    16 1   
    26     9    17 2   
    27     9    25 1   
    28    10    11 1   
    29    10    17 1   
    30    10    23 2   
    31    11    15 1   
    32    11    37 1   
    33    12    26 1   
    34    13    14 ar  
    35    13    38 1   
    36    14    39 1   
    37    15    40 1   
    38    15    41 1   
    39    16    20 1   
    40    18    26 1   
    41    20    42 1   
    42    21    26 2   
    43    22    26 2   
    44    34    43 1   
    45    35    43 1   
@<TRIPOS>SUBSTRUCTURE
     1 VK6         1 TEMP              0 ****  ****    0 ROOT
