@<TRIPOS>MOLECULE
VK6
   43    45     1     0     0
SMALL
abcg2


@<TRIPOS>ATOM
      1 C13         26.6160   -25.2520     4.8550 c5         1 VK6       0.227800
      2 C17         28.8240   -22.7690     6.2540 ca         1 VK6      -0.016500
      3 C20         30.0730   -21.3190     4.2320 ca         1 VK6      -0.133000
      4 C21         30.0470   -22.7040     4.1650 ca         1 VK6      -0.016500
      5 C24         27.8830   -25.2330     2.7750 c5         1 VK6       0.205800
      6 C02         18.5830   -24.8830     8.2870 c          1 VK6       0.735000
      7 C04         20.6700   -24.8460     6.7120 cc         1 VK6       0.172800
      8 C07         20.0980   -25.1130     5.5220 cd         1 VK6      -0.237400
      9 C09         22.5400   -24.8460     5.3110 cc         1 VK6       0.614100
     10 C11         24.2940   -24.8670     3.8650 c          1 VK6       0.715500
     11 C12         25.7800   -24.6630     3.7180 c5         1 VK6      -0.137700
     12 C16         29.4130   -23.4190     5.1760 ca         1 VK6      -0.300500
     13 C18         28.8570   -21.3840     6.3080 ca         1 VK6      -0.133000
     14 C19         29.4760   -20.6600     5.2980 ca         1 VK6      -0.062000
     15 C25         26.3960   -25.2760     2.4670 c5         1 VK6      -0.070400
     16 N05         22.0380   -24.7040     6.5390 na         1 VK6      -0.357900
     17 N10         23.8340   -24.7130     5.1270 nf         1 VK6      -0.850100
     18 N14         27.9210   -25.4970     4.2210 n3         1 VK6      -0.749500
     19 O01         18.2150   -24.7340     9.4650 o          1 VK6      -0.718500
     20 O06         22.8550   -24.4260     7.5810 oh         1 VK6      -0.371300
     21 O22         29.1270   -25.7200     6.3900 o          1 VK6      -0.543500
     22 O23         30.3940   -25.6450     4.2130 o          1 VK6      -0.543500
     23 O26         23.5840   -25.1220     2.8960 o          1 VK6      -0.632100
     24 O27         17.8770   -25.1600     7.3030 o          1 VK6      -0.718500
     25 S08         21.2480   -25.1870     4.2220 ss         1 VK6      -0.001800
     26 S15         29.2970   -25.1860     5.0490 sy         1 VK6       1.168600
     27 H1          26.6790   -24.5690     5.7030 h1         1 VK6       0.069700
     28 H2          26.2020   -26.1940     5.2190 h1         1 VK6       0.069700
     29 H3          28.3550   -23.3280     7.0530 ha         1 VK6       0.135000
     30 H4          30.5660   -20.7560     3.4500 ha         1 VK6       0.116000
     31 H5          30.5240   -23.2140     3.3390 ha         1 VK6       0.135000
     32 H6          28.4520   -25.9820     2.2270 h1         1 VK6       0.050700
     33 H7          28.2900   -24.2440     2.5330 h1         1 VK6       0.050700
     34 H8          20.3700   -23.6950     8.4610 hc         1 VK6       0.056700
     35 H9          20.6210   -25.3880     8.7550 hc         1 VK6       0.056700
     36 H10         19.0510   -25.2750     5.3450 h4         1 VK6       0.281000
     37 H12         25.9510   -23.5790     3.6980 hc         1 VK6       0.065700
     38 H13         28.4030   -20.8710     7.1460 ha         1 VK6       0.116000
     39 H14         29.5000   -19.5790     5.3460 ha         1 VK6       0.112000
     40 H15         26.1580   -24.7290     1.5560 hc         1 VK6       0.066200
     41 H16         26.0630   -26.3080     2.3390 hc         1 VK6       0.066200
     42 H17         23.7420   -24.3780     7.1700 ho         1 VK6       0.485000
     43 C03         20.1080   -24.6900     8.0850 c3         1 VK6      -0.179200
@<TRIPOS>BOND
     1     1    11 1   
     2     1    18 1   
     3     1    27 1   
     4     1    28 1   
     5     2    12 ar  
     6     2    13 ar  
     7     2    29 1   
     8     3     4 ar  
     9     3    14 ar  
    10     3    30 1   
    11     4    12 ar  
    12     4    31 1   
    13     5    15 1   
    14     5    18 1   
    15     5    32 1   
    16     5    33 1   
    17     6    19 1   
    18     6    24 1   
    19     6    43 1   
    20     7     8 2   
    21     7    16 1   
    22     7    43 1   
    23     8    25 1   
    24     8    36 1   
    25     9    16 1   
    26     9    17 2   
    27     9    25 1   
    28    10    11 1   
    29    10    17 1   
    30    10    23 2   
    31    11    15 1   
    32    11    37 1   
    33    12    26 1   
    34    13    14 ar  
    35    13    38 1   
    36    14    39 1   
    37    15    40 1   
    38    15    41 1   
    39    16    20 1   
    40    18    26 1   
    41    20    42 1   
    42    21    26 2   
    43    22    26 2   
    44    34    43 1   
    45    35    43 1   
@<TRIPOS>SUBSTRUCTURE
     1 VK6         1 TEMP              0 ****  ****    0 ROOT
