@<TRIPOS>MOLECULE
VK7
   71    75     1     0     0
SMALL
bcc


@<TRIPOS>ATOM
      1 C1         -23.3120    -9.1450   -25.3390 ca         1 VK7       0.030000
      2 C2         -23.6780    -9.6540   -24.0830 ca         1 VK7      -0.110300
      3 C3         -24.2920    -8.7980   -23.1880 ca         1 VK7      -0.103000
      4 C4         -24.5750    -7.4720   -23.5060 ca         1 VK7      -0.038300
      5 C5         -24.2630    -6.9900   -24.7740 ca         1 VK7      -0.053300
      6 C6         -23.6050    -7.8280   -25.6660 ca         1 VK7      -0.076000
      7 C7         -25.1690    -6.5620   -22.4760 c6         1 VK7      -0.040100
      8 C8         -24.7010    -5.1380   -22.7210 c6         1 VK7      -0.088400
      9 C9         -25.1820    -4.6780   -24.0900 c5         1 VK7       0.133700
     10 C10        -24.7130    -5.6260   -25.2260 c5         1 VK7      -0.076900
     11 C12        -27.3770    -6.6920   -25.3550 ca         1 VK7      -0.286500
     12 C13        -28.3780    -5.9270   -24.7680 ca         1 VK7      -0.003000
     13 S11        -26.1520    -5.9030   -26.3600 sy         1 VK7       1.054300
     14 C14        -29.3140    -6.5370   -23.9520 ca         1 VK7      -0.196500
     15 C15        -29.2230    -7.9010   -23.7450 ca         1 VK7       0.188900
     16 C16        -28.2430    -8.6800   -24.3340 ca         1 VK7      -0.196500
     17 C17        -27.3130    -8.0680   -25.1560 ca         1 VK7      -0.003000
     18 F18        -30.1210    -8.4870   -22.9530 f          1 VK7      -0.134900
     19 O19        -25.7350    -6.8460   -27.3930 o          1 VK7      -0.576300
     20 O20        -26.6510    -4.5900   -26.7590 o          1 VK7      -0.576300
     21 C21        -23.4480   -11.1140   -23.7570 c3         1 VK7       0.103600
     22 N22        -24.6520    -3.3910   -24.4730 n          1 VK7      -0.483800
     23 C23        -23.6580    -4.8230   -26.0280 c5         1 VK7      -0.068400
     24 C24        -23.4120    -3.5670   -25.1970 c5         1 VK7       0.116000
     25 C25        -25.2940    -2.2460   -24.1430 c          1 VK7       0.691100
     26 O26        -26.3490    -2.2820   -23.5210 o          1 VK7      -0.616100
     27 C27        -24.6360    -0.9400   -24.5370 c6         1 VK7      -0.128700
     28 C28        -23.4600    -0.6450   -23.5950 c6         1 VK7      -0.069900
     29 C29        -22.7800     0.6730   -23.9470 c6         1 VK7      -0.054400
     30 C30        -23.7620     1.8400   -23.9540 c6         1 VK7      -0.193700
     31 C31        -24.9310     1.5310   -24.8870 c6         1 VK7      -0.054400
     32 C32        -25.6230     0.2220   -24.5250 c6         1 VK7      -0.069900
     33 C33        -23.1030     3.2070   -24.2630 c          1 VK7       0.932600
     34 O34        -23.8700     4.1240   -24.6220 o          1 VK7      -0.839300
     35 O35        -21.8690     3.3000   -24.1040 o          1 VK7      -0.839300
     36 C36        -24.6680   -11.9430   -24.2300 c3         1 VK7       0.664400
     37 F37        -24.5010   -13.2420   -24.0170 f          1 VK7      -0.212467
     38 F38        -24.8410   -11.7640   -25.5360 f          1 VK7      -0.212467
     39 F39        -25.7770   -11.5540   -23.6110 f          1 VK7      -0.212467
     40 F40        -22.1620   -10.5120   -21.8680 f          1 VK7      -0.212467
     41 F41        -22.5610   -12.6030   -22.1460 f          1 VK7      -0.212467
     42 F42        -24.1280   -11.3000   -21.4700 f          1 VK7      -0.212467
     43 C43        -22.6690    -9.8990   -26.3690 cg         1 VK7       0.228800
     44 N44        -22.1640   -10.4180   -27.2640 n1         1 VK7      -0.333800
     45 C45        -23.0730   -11.3860   -22.2760 c3         1 VK7       0.664400
     46 F46        -22.3720   -11.5780   -24.4690 f          1 VK7      -0.178300
     47 H47        -24.5820    -9.1320   -22.2020 ha         1 VK7       0.151000
     48 H48        -23.3200    -7.4710   -26.6450 ha         1 VK7       0.170000
     49 H50        -26.2630    -6.6130   -22.5150 hc         1 VK7       0.062200
     50 H49        -24.8830    -6.9010   -21.4800 hc         1 VK7       0.062200
     51 H51        -23.6110    -5.0860   -22.6540 hc         1 VK7       0.067700
     52 H52        -25.1090    -4.4660   -21.9660 hc         1 VK7       0.067700
     53 H53        -26.2680    -4.6060   -24.0330 h1         1 VK7       0.079700
     54 H54        -28.4390    -4.8600   -24.9380 ha         1 VK7       0.166500
     55 H55        -30.1020    -5.9600   -23.4860 ha         1 VK7       0.159000
     56 H56        -28.2080    -9.7470   -24.1590 ha         1 VK7       0.159000
     57 H57        -26.5550    -8.6720   -25.6360 ha         1 VK7       0.166500
     58 H58        -24.0150    -4.5460   -27.0200 hc         1 VK7       0.065700
     59 H59        -22.7420    -5.3930   -26.1680 hc         1 VK7       0.065700
     60 H61        -22.5780    -3.7190   -24.5070 h1         1 VK7       0.062700
     61 H60        -23.1750    -2.7110   -25.8230 h1         1 VK7       0.062700
     62 H62        -24.2380    -1.0290   -25.5550 hc         1 VK7       0.057700
     63 H64        -23.8370    -0.6020   -22.5670 hc         1 VK7       0.030950
     64 H63        -22.7270    -1.4550   -23.6240 hc         1 VK7       0.030950
     65 H1         -22.3120     0.5810   -24.9330 hc         1 VK7       0.044200
     66 H2         -21.9720     0.8600   -23.2380 hc         1 VK7       0.044200
     67 H3         -24.1770     1.9230   -22.9370 hc         1 VK7       0.027700
     68 H4         -24.5650     1.4730   -25.9200 hc         1 VK7       0.044200
     69 H5         -25.6540     2.3450   -24.8610 hc         1 VK7       0.044200
     70 H71        -26.0700     0.3140   -23.5310 hc         1 VK7       0.030950
     71 H70        -26.4420     0.0260   -25.2220 hc         1 VK7       0.030950
@<TRIPOS>BOND
     1     1     2 ar  
     2     1     6 ar  
     3     1    43 1   
     4     2     3 ar  
     5     2    21 1   
     6     3     4 ar  
     7     3    47 1   
     8     4     5 ar  
     9     4     7 1   
    10     5     6 ar  
    11     5    10 1   
    12     6    48 1   
    13     7     8 1   
    14     7    49 1   
    15     7    50 1   
    16     8     9 1   
    17     8    51 1   
    18     8    52 1   
    19     9    10 1   
    20     9    22 1   
    21     9    53 1   
    22    10    13 1   
    23    10    23 1   
    24    11    12 ar  
    25    11    13 1   
    26    11    17 ar  
    27    12    14 ar  
    28    12    54 1   
    29    13    19 2   
    30    13    20 2   
    31    14    15 ar  
    32    14    55 1   
    33    15    16 ar  
    34    15    18 1   
    35    16    17 ar  
    36    16    56 1   
    37    17    57 1   
    38    21    36 1   
    39    21    45 1   
    40    21    46 1   
    41    22    24 1   
    42    22    25 1   
    43    23    24 1   
    44    23    58 1   
    45    23    59 1   
    46    24    60 1   
    47    24    61 1   
    48    25    26 2   
    49    25    27 1   
    50    27    28 1   
    51    27    32 1   
    52    27    62 1   
    53    28    29 1   
    54    28    63 1   
    55    28    64 1   
    56    29    30 1   
    57    29    65 1   
    58    29    66 1   
    59    30    31 1   
    60    30    33 1   
    61    30    67 1   
    62    31    32 1   
    63    31    68 1   
    64    31    69 1   
    65    32    70 1   
    66    32    71 1   
    67    33    34 1   
    68    33    35 1   
    69    36    37 1   
    70    36    38 1   
    71    36    39 1   
    72    40    45 1   
    73    41    45 1   
    74    42    45 1   
    75    43    44 3   
@<TRIPOS>SUBSTRUCTURE
     1 VK7         1 TEMP              0 ****  ****    0 ROOT
