@<TRIPOS>MOLECULE
VK7
   71    75     1     0     0
SMALL
No Charge or Current Charge


@<TRIPOS>ATOM
      1 C1         -23.5560    -9.2980   -25.3480 ca         1 VK7       0.030000
      2 C2         -23.7500    -9.7770   -24.0140 ca         1 VK7      -0.110300
      3 C3         -24.2230    -8.8390   -23.0630 ca         1 VK7      -0.085000
      4 C4         -24.4860    -7.4990   -23.3930 ca         1 VK7      -0.038300
      5 C5         -24.3240    -7.0400   -24.7170 ca         1 VK7      -0.053300
      6 C6         -23.8300    -7.9540   -25.6670 ca         1 VK7      -0.058000
      7 C7         -24.9260    -6.5480   -22.2850 c6         1 VK7      -0.040100
      8 C8         -24.4980    -5.1100   -22.6070 c6         1 VK7      -0.088400
      9 C9         -25.1220    -4.6930   -23.9520 c5         1 VK7       0.133700
     10 C10        -24.7020    -5.6000   -25.1620 c5         1 VK7      -0.187700
     11 C12        -27.3800    -6.6700   -25.6960 ca         1 VK7      -0.286500
     12 C13        -28.4160    -6.1140   -24.9150 ca         1 VK7       0.014500
     13 S11        -26.1130    -5.6050   -26.4170 sy         1 VK7       1.023500
     14 C14        -29.3690    -6.9570   -24.3180 ca         1 VK7      -0.178500
     15 C15        -29.2880    -8.3450   -24.4980 ca         1 VK7       0.224000
     16 C16        -28.2630    -8.9030   -25.2740 ca         1 VK7      -0.178500
     17 C17        -27.3070    -8.0680   -25.8770 ca         1 VK7       0.014500
     18 F18        -30.2040    -9.1510   -23.9180 f          1 VK7      -0.170000
     19 O19        -25.6220    -6.2690   -27.6310 o          1 VK7      -0.505500
     20 O20        -26.6700    -4.2480   -26.4960 o          1 VK7      -0.505500
     21 C21        -23.5210   -11.2730   -23.5850 c3         1 VK7       0.122300
     22 N22        -24.6140    -3.3590   -24.3590 n          1 VK7      -0.416800
     23 C23        -23.4060    -4.9050   -25.6900 c5         1 VK7      -0.068400
     24 C24        -23.7450    -3.4010   -25.5610 c5         1 VK7       0.116000
     25 C25        -25.2000    -2.1680   -23.8670 c          1 VK7       0.624100
     26 O26        -26.1000    -2.2230   -23.0360 o          1 VK7      -0.616100
     27 C27        -24.6070    -0.7940   -24.2860 c6         1 VK7      -0.128700
     28 C28        -23.3200    -0.4510   -23.4870 c6         1 VK7      -0.069900
     29 C29        -22.6860     0.8740   -23.9800 c6         1 VK7      -0.054400
     30 C30        -23.7120     2.0440   -23.9510 c6         1 VK7      -0.193700
     31 C31        -24.9760     1.6900   -24.7880 c6         1 VK7      -0.054400
     32 C32        -25.6320     0.3750   -24.2980 c6         1 VK7      -0.069900
     33 C33        -23.0780     3.3870   -24.3910 c          1 VK7       0.722000
     34 O34        -23.0410     4.2970   -23.5760 o          1 VK7      -0.734000
     35 O35        -22.6420     3.4820   -25.5290 o          1 VK7      -0.734000
     36 C36        -24.8370   -12.0910   -23.8470 c3         1 VK7       0.300500
     37 F37        -24.7310   -13.3770   -23.4380 f          1 VK7      -0.091167
     38 F38        -25.1610   -12.1000   -25.1610 f          1 VK7      -0.091167
     39 F39        -25.8910   -11.5460   -23.1940 f          1 VK7      -0.091167
     40 F40        -22.0600   -10.5280   -21.7950 f          1 VK7      -0.091167
     41 F41        -22.4730   -12.6680   -21.8960 f          1 VK7      -0.091167
     42 F42        -24.0060   -11.3180   -21.1860 f          1 VK7      -0.091167
     43 C43        -23.1150   -10.1230   -26.4470 cg         1 VK7       0.318000
     44 N44        -22.7650   -10.7750   -27.3510 n1         1 VK7      -0.423000
     45 C45        -23.0130   -11.4410   -22.0970 c3         1 VK7       0.300500
     46 F46        -22.5420   -11.8380   -24.3410 f          1 VK7      -0.197000
     47 H47        -24.4060    -9.1330   -22.0360 ha         1 VK7       0.133000
     48 H48        -23.6710    -7.6200   -26.6900 ha         1 VK7       0.152000
     49 H50        -26.0160    -6.6030   -22.1630 hc         1 VK7       0.062200
     50 H49        -24.4870    -6.8500   -21.3240 hc         1 VK7       0.062200
     51 H51        -23.4030    -5.0430   -22.6540 hc         1 VK7       0.067700
     52 H52        -24.8270    -4.4310   -21.8090 hc         1 VK7       0.067700
     53 H53        -26.2130    -4.6830   -23.8200 h1         1 VK7       0.079700
     54 H54        -28.4850    -5.0380   -24.7620 ha         1 VK7       0.148500
     55 H55        -30.1670    -6.5360   -23.7140 ha         1 VK7       0.141000
     56 H56        -28.2080    -9.9800   -25.4060 ha         1 VK7       0.141000
     57 H57        -26.5130    -8.5130   -26.4750 ha         1 VK7       0.148500
     58 H58        -23.1410    -5.1850   -26.7150 hc         1 VK7       0.065700
     59 H59        -22.5430    -5.1500   -25.0590 hc         1 VK7       0.065700
     60 H61        -22.8350    -2.7990   -25.4380 h1         1 VK7       0.062700
     61 H60        -24.2820    -3.0320   -26.4440 h1         1 VK7       0.062700
     62 H62        -24.2470    -0.9160   -25.3130 hc         1 VK7       0.057700
     63 H64        -23.5630    -0.3680   -22.4180 hc         1 VK7       0.030950
     64 H63        -22.5880    -1.2660   -23.5740 hc         1 VK7       0.030950
     65 H1         -22.3000     0.7380   -25.0000 hc         1 VK7       0.044200
     66 H2         -21.8190     1.1230   -23.3520 hc         1 VK7       0.044200
     67 H3         -24.0340     2.1740   -22.9080 hc         1 VK7       0.027700
     68 H4         -24.7070     1.5920   -25.8500 hc         1 VK7       0.044200
     69 H5         -25.7050     2.5100   -24.7270 hc         1 VK7       0.044200
     70 H71        -26.0410     0.5250   -23.2890 hc         1 VK7       0.030950
     71 H70        -26.4820     0.1210   -24.9470 hc         1 VK7       0.030950
@<TRIPOS>BOND
     1     1     2 ar  
     2     1     6 ar  
     3     1    43 1   
     4     2     3 ar  
     5     2    21 1   
     6     3     4 ar  
     7     3    47 1   
     8     4     5 ar  
     9     4     7 1   
    10     5     6 ar  
    11     5    10 1   
    12     6    48 1   
    13     7     8 1   
    14     7    49 1   
    15     7    50 1   
    16     8     9 1   
    17     8    51 1   
    18     8    52 1   
    19     9    10 1   
    20     9    22 1   
    21     9    53 1   
    22    10    13 1   
    23    10    23 1   
    24    11    12 ar  
    25    11    13 1   
    26    11    17 ar  
    27    12    14 ar  
    28    12    54 1   
    29    13    19 2   
    30    13    20 2   
    31    14    15 ar  
    32    14    55 1   
    33    15    16 ar  
    34    15    18 1   
    35    16    17 ar  
    36    16    56 1   
    37    17    57 1   
    38    21    36 1   
    39    21    45 1   
    40    21    46 1   
    41    22    24 1   
    42    22    25 1   
    43    23    24 1   
    44    23    58 1   
    45    23    59 1   
    46    24    60 1   
    47    24    61 1   
    48    25    26 2   
    49    25    27 1   
    50    27    28 1   
    51    27    32 1   
    52    27    62 1   
    53    28    29 1   
    54    28    63 1   
    55    28    64 1   
    56    29    30 1   
    57    29    65 1   
    58    29    66 1   
    59    30    31 1   
    60    30    33 1   
    61    30    67 1   
    62    31    32 1   
    63    31    68 1   
    64    31    69 1   
    65    32    70 1   
    66    32    71 1   
    67    33    34 1   
    68    33    35 1   
    69    36    37 1   
    70    36    38 1   
    71    36    39 1   
    72    40    45 1   
    73    41    45 1   
    74    42    45 1   
    75    43    44 3   
@<TRIPOS>SUBSTRUCTURE
     1 VK7         1 TEMP              0 ****  ****    0 ROOT
