@<TRIPOS>MOLECULE
VK8
   52    56     1     0     0
SMALL
No Charge or Current Charge


@<TRIPOS>ATOM
      1 C10        -15.5980     0.9680   -23.1460 ca         1 VK8      -0.181000
      2 N12        -15.8330    -3.1580   -19.7560 nc         1 VK8      -0.179600
      3 C13        -16.6350    -4.1990   -19.9470 cd         1 VK8      -0.118000
      4 C17        -14.0730    -6.0120   -22.3220 ca         1 VK8      -0.094500
      5 C20        -12.1530    -4.0350   -21.7750 ca         1 VK8      -0.111000
      6 C21        -12.9640    -4.5330   -20.7410 ca         1 VK8      -0.094500
      7 C24        -19.5590    -7.0910   -20.6740 ca         1 VK8      -0.169500
      8 C26        -21.8590    -7.8910   -20.3950 ca         1 VK8      -0.181500
      9 C02        -18.0180    -2.4000   -20.0530 c          1 VK8       0.519800
     10 C04        -16.1540    -0.7040   -19.7360 c3         1 VK8       0.191300
     11 C05        -15.4970    -0.2480   -21.0340 ca         1 VK8      -0.156300
     12 C06        -14.1830    -0.6560   -21.3440 ca         1 VK8      -0.045500
     13 C07        -13.5820    -0.2520   -22.5490 ca         1 VK8      -0.181000
     14 C08        -14.2900     0.5600   -23.4480 ca         1 VK8       0.151100
     15 C11        -16.2030     0.5640   -21.9430 ca         1 VK8      -0.045500
     16 C14        -16.2690    -5.5880   -20.0300 cd         1 VK8       0.399300
     17 C16        -13.9300    -5.5240   -21.0090 ca         1 VK8      -0.070300
     18 C18        -13.2600    -5.5150   -23.3560 ca         1 VK8      -0.111000
     19 C19        -12.3000    -4.5250   -23.0830 ca         1 VK8      -0.107000
     20 C23        -18.5000    -6.1090   -20.3990 cc         1 VK8       0.334500
     21 C25        -20.8670    -6.9220   -20.1590 ca         1 VK8      -0.047000
     22 C27        -21.5540    -9.0450   -21.1310 ca         1 VK8       0.149100
     23 C29        -20.2570    -9.2380   -21.6210 ca         1 VK8      -0.181500
     24 C30        -19.2620    -8.2740   -21.3870 ca         1 VK8      -0.047000
     25 C31        -18.8650    -4.7720   -20.3540 cd         1 VK8      -0.081000
     26 N03        -16.6820    -2.0720   -19.8210 n          1 VK8      -0.147800
     27 N22        -17.1870    -6.5360   -20.2500 nc         1 VK8      -0.634000
     28 N32        -17.9310    -3.7830   -20.1130 n          1 VK8      -0.005800
     29 O09        -13.7150     0.9560   -24.6170 oh         1 VK8      -0.531100
     30 O28        -22.5110    -9.9880   -21.3610 oh         1 VK8      -0.530100
     31 H1         -16.1460     1.5940   -23.8450 ha         1 VK8       0.123000
     32 H3         -14.7880    -7.1430   -19.8830 hc         1 VK8       0.073200
     33 H4         -14.4560    -5.7310   -18.9200 hc         1 VK8       0.073200
     34 H6         -11.4120    -3.2670   -21.5620 ha         1 VK8       0.111500
     35 H7         -12.8470    -4.1410   -19.7330 ha         1 VK8       0.110500
     36 H8         -22.8590    -7.7390   -19.9960 ha         1 VK8       0.122500
     37 H9         -15.4200    -0.6610   -18.9210 h1         1 VK8       0.072700
     38 H10        -16.9710    -0.0200   -19.4710 h1         1 VK8       0.072700
     39 H11        -13.6310    -1.2910   -20.6540 ha         1 VK8       0.119500
     40 H12        -12.5700    -0.5770   -22.7760 ha         1 VK8       0.123000
     41 H13        -17.2210     0.8800   -21.7200 ha         1 VK8       0.119500
     42 H14        -13.3760    -5.8950   -24.3690 ha         1 VK8       0.111500
     43 H15        -11.6730    -4.1390   -23.8830 ha         1 VK8       0.111000
     44 H16        -21.1220    -6.0490   -19.5630 ha         1 VK8       0.124000
     45 H17        -20.0180   -10.1380   -22.1820 ha         1 VK8       0.122500
     46 H18        -18.2590    -8.4450   -21.7750 ha         1 VK8       0.124000
     47 H19        -19.8650    -4.3890   -20.5100 h4         1 VK8       0.169000
     48 H20        -12.8090     0.5810   -24.6590 ho         1 VK8       0.466000
     49 H21        -23.3470    -9.6880   -20.9450 ho         1 VK8       0.466000
     50 O01        -18.9950    -1.6700   -20.1790 o          1 VK8      -0.543000
     51 C15        -14.8350    -6.0480   -19.8980 c3         1 VK8      -0.076400
     52 H5         -14.8180    -6.7730   -22.5430 ha         1 VK8       0.110500
@<TRIPOS>BOND
     1     1    14 ar  
     2     1    15 ar  
     3     1    31 1   
     4     2     3 2   
     5     2    26 1   
     6     3    16 1   
     7     3    28 1   
     8     4    17 ar  
     9     4    18 ar  
    10     4    52 1   
    11     5     6 ar  
    12     5    19 ar  
    13     5    34 1   
    14     6    17 ar  
    15     6    35 1   
    16     7    20 1   
    17     7    21 ar  
    18     7    24 ar  
    19     8    21 ar  
    20     8    22 ar  
    21     8    36 1   
    22     9    26 1   
    23     9    28 1   
    24     9    50 2   
    25    10    11 1   
    26    10    26 1   
    27    10    37 1   
    28    10    38 1   
    29    11    12 ar  
    30    11    15 ar  
    31    12    13 ar  
    32    12    39 1   
    33    13    14 ar  
    34    13    40 1   
    35    14    29 1   
    36    15    41 1   
    37    16    27 2   
    38    16    51 1   
    39    17    51 1   
    40    18    19 ar  
    41    18    42 1   
    42    19    43 1   
    43    20    25 2   
    44    20    27 1   
    45    21    44 1   
    46    22    23 ar  
    47    22    30 1   
    48    23    24 ar  
    49    23    45 1   
    50    24    46 1   
    51    25    28 1   
    52    25    47 1   
    53    29    48 1   
    54    30    49 1   
    55    32    51 1   
    56    33    51 1   
@<TRIPOS>SUBSTRUCTURE
     1 VK8         1 TEMP              0 ****  ****    0 ROOT
