@<TRIPOS>MOLECULE
VK8
   52    56     1     0     0
SMALL
bcc


@<TRIPOS>ATOM
      1 C10        -16.4010     1.8770   -22.3300 ca         1 VK8      -0.199000
      2 N12        -15.7130    -2.4210   -20.0350 nc         1 VK8      -0.179600
      3 C13        -16.3520    -3.4990   -20.3610 cd         1 VK8      -0.132600
      4 C17        -13.6160    -7.2430   -20.6940 ca         1 VK8      -0.112500
      5 C20        -13.7350    -7.8780   -23.3880 ca         1 VK8      -0.129000
      6 C21        -14.0790    -6.6050   -22.9560 ca         1 VK8      -0.112500
      7 C24        -18.9110    -6.7180   -21.1970 ca         1 VK8      -0.169500
      8 C26        -20.9520    -7.9940   -20.9160 ca         1 VK8      -0.199500
      9 C02        -17.9390    -2.0930   -19.6670 c          1 VK8       0.662300
     10 C04        -16.3360    -0.2360   -19.1790 c3         1 VK8       0.191300
     11 C05        -15.8870     0.6270   -20.3250 ca         1 VK8      -0.156300
     12 C06        -14.5500     0.9620   -20.4850 ca         1 VK8      -0.063500
     13 C07        -14.1280     1.7510   -21.5470 ca         1 VK8      -0.199000
     14 C08        -15.0540     2.2120   -22.4780 ca         1 VK8       0.151100
     15 C11        -16.8040     1.0950   -21.2640 ca         1 VK8      -0.063500
     16 C14        -15.8810    -4.7510   -20.8840 cd         1 VK8       0.464600
     17 C16        -14.0220    -6.2740   -21.6060 ca         1 VK8      -0.070300
     18 C18        -13.2690    -8.5170   -21.1220 ca         1 VK8      -0.129000
     19 C19        -13.3280    -8.8390   -22.4710 ca         1 VK8      -0.125000
     20 C23        -18.0710    -5.5480   -20.8920 cc         1 VK8       0.399800
     21 C25        -20.1620    -6.8990   -20.6090 ca         1 VK8      -0.065000
     22 C27        -20.5010    -8.9490   -21.8240 ca         1 VK8       0.149100
     23 C29        -19.2470    -8.7890   -22.4110 ca         1 VK8      -0.199500
     24 C30        -18.4680    -7.6910   -22.0960 ca         1 VK8      -0.065000
     25 C31        -18.5810    -4.3820   -20.4300 cd         1 VK8      -0.113600
     26 N03        -16.6810    -1.5760   -19.6050 n          1 VK8      -0.214800
     27 N22        -16.7170    -5.6980   -21.1210 nc         1 VK8      -0.634000
     28 N32        -17.6990    -3.3710   -20.1600 n          1 VK8      -0.107200
     29 O09        -14.7140     2.9810   -23.5300 oh         1 VK8      -0.492100
     30 O28        -21.2220   -10.0350   -22.1580 oh         1 VK8      -0.491100
     31 H1         -17.1250     2.2360   -23.0510 ha         1 VK8       0.141000
     32 H3         -13.8770    -4.6390   -20.2220 hc         1 VK8       0.073200
     33 H4         -14.1190    -4.1470   -21.8750 hc         1 VK8       0.073200
     34 H6         -13.7810    -8.1200   -24.4420 ha         1 VK8       0.129500
     35 H7         -14.3920    -5.8580   -23.6770 ha         1 VK8       0.128500
     36 H8         -21.9160    -8.1080   -20.4350 ha         1 VK8       0.140500
     37 H9         -15.5550    -0.3150   -18.4220 h1         1 VK8       0.072700
     38 H10        -17.2200     0.1770   -18.6940 h1         1 VK8       0.072700
     39 H11        -13.8170     0.6100   -19.7690 ha         1 VK8       0.137500
     40 H12        -13.0790     2.0040   -21.6470 ha         1 VK8       0.141000
     41 H13        -17.8550     0.8500   -21.1610 ha         1 VK8       0.137500
     42 H14        -12.9500    -9.2590   -20.4000 ha         1 VK8       0.129500
     43 H15        -13.0560    -9.8310   -22.8060 ha         1 VK8       0.129000
     44 H16        -20.5340    -6.1930   -19.8770 ha         1 VK8       0.142000
     45 H17        -18.8850    -9.5270   -23.1150 ha         1 VK8       0.140500
     46 H18        -17.4980    -7.5860   -22.5640 ha         1 VK8       0.142000
     47 H19        -19.6280    -4.1730   -20.2670 h4         1 VK8       0.187000
     48 H20        -13.7650     3.1480   -23.5340 ho         1 VK8       0.427000
     49 H21        -22.0640   -10.0380   -21.6880 ho         1 VK8       0.427000
     50 O01        -19.0110    -1.6000   -19.3730 o          1 VK8      -0.618500
     51 C15        -14.4110    -4.9030   -21.1400 c3         1 VK8      -0.076400
     52 H5         -13.5670    -6.9970   -19.6390 ha         1 VK8       0.128500
@<TRIPOS>BOND
     1     1    14 ar  
     2     1    15 ar  
     3     1    31 1   
     4     2     3 2   
     5     2    26 1   
     6     3    16 1   
     7     3    28 1   
     8     4    17 ar  
     9     4    18 ar  
    10     4    52 1   
    11     5     6 ar  
    12     5    19 ar  
    13     5    34 1   
    14     6    17 ar  
    15     6    35 1   
    16     7    20 1   
    17     7    21 ar  
    18     7    24 ar  
    19     8    21 ar  
    20     8    22 ar  
    21     8    36 1   
    22     9    26 1   
    23     9    28 1   
    24     9    50 2   
    25    10    11 1   
    26    10    26 1   
    27    10    37 1   
    28    10    38 1   
    29    11    12 ar  
    30    11    15 ar  
    31    12    13 ar  
    32    12    39 1   
    33    13    14 ar  
    34    13    40 1   
    35    14    29 1   
    36    15    41 1   
    37    16    27 2   
    38    16    51 1   
    39    17    51 1   
    40    18    19 ar  
    41    18    42 1   
    42    19    43 1   
    43    20    25 2   
    44    20    27 1   
    45    21    44 1   
    46    22    23 ar  
    47    22    30 1   
    48    23    24 ar  
    49    23    45 1   
    50    24    46 1   
    51    25    28 1   
    52    25    47 1   
    53    29    48 1   
    54    30    49 1   
    55    32    51 1   
    56    33    51 1   
@<TRIPOS>SUBSTRUCTURE
     1 VK8         1 TEMP              0 ****  ****    0 ROOT
