@<TRIPOS>MOLECULE
VK9
   56    58     1     0     0
SMALL
abcg2


@<TRIPOS>ATOM
      1 C4          16.9600   -13.2830     1.2130 c3         1 VK9      -0.075400
      2 C5          17.2550   -12.4250     2.4420 c3         1 VK9      -0.064400
      3 C6          17.6910   -11.0020     2.1110 c5         1 VK9       0.101300
      4 C7          19.0240   -10.9120     1.3820 c5         1 VK9      -0.085400
      5 C8          19.5590    -9.4960     1.4640 c5         1 VK9       0.057600
      6 C13         13.5260   -11.4800    -3.1440 c3         1 VK9       0.094000
      7 C15         12.9330   -10.8100    -5.5140 c3         1 VK9       0.100000
      8 C17         13.1790    -8.3840    -5.0830 c          1 VK9       0.597100
      9 C21         16.6340    -7.6640    -5.5280 cc         1 VK9       0.401700
     10 C24         15.9340    -8.1860    -3.5260 ca         1 VK9       0.120500
     11 S8          19.6270    -9.0510     3.2270 ss         1 VK9      -0.247000
     12 S6          17.8260   -10.0370     3.6840 ss         1 VK9      -0.280000
     13 C3          15.8140   -12.7520     0.3590 c3         1 VK9      -0.077400
     14 C2          15.4010   -13.7380    -0.7360 c3         1 VK9      -0.164400
     15 C1          14.2130   -13.2370    -1.5360 c          1 VK9       0.602100
     16 O2          13.0970   -13.7260    -1.4350 o          1 VK9      -0.597100
     17 N2          14.4870   -12.1850    -2.3290 ns         1 VK9      -0.510900
     18 C14         13.6130   -11.8450    -4.6230 c3         1 VK9      -0.121400
     19 N16         13.6640    -9.5600    -5.5000 ns         1 VK9      -0.504900
     20 O18         12.0150    -8.1760    -4.7840 o          1 VK9      -0.580100
     21 C19         14.1900    -7.2370    -5.0350 c3         1 VK9      -0.009400
     22 N20         15.5320    -7.6550    -4.7160 na         1 VK9      -0.288300
     23 N22         17.6930    -8.1550    -4.9570 nd         1 VK9      -0.543100
     24 C23         17.2730    -8.4930    -3.6960 ca         1 VK9      -0.103600
     25 N28         15.2040    -8.3770    -2.4290 nb         1 VK9      -0.206000
     26 C27         15.9140    -8.9340    -1.4630 ca         1 VK9       0.181900
     27 N26         17.1940    -9.2960    -1.4860 nb         1 VK9      -0.321000
     28 C25         17.9170    -9.0900    -2.5950 ca         1 VK9       0.451900
     29 N29         19.1960    -9.4610    -2.6170 nv         1 VK9      -1.063900
     30 H1          16.7110   -14.2890     1.5620 hc         1 VK9       0.042700
     31 H2          17.8590   -13.3900     0.5980 hc         1 VK9       0.042700
     32 H3          16.3570   -12.3960     3.0660 hc         1 VK9       0.060200
     33 H4          18.0380   -12.8970     3.0420 hc         1 VK9       0.060200
     34 H5          16.9250   -10.4940     1.5220 h1         1 VK9       0.085700
     35 H6          18.8860   -11.1910     0.3350 hc         1 VK9       0.068700
     36 H7          19.7410   -11.6100     1.8230 hc         1 VK9       0.068700
     37 H8          20.5740    -9.4130     1.0750 h1         1 VK9       0.084200
     38 H9          18.9180    -8.7990     0.9230 h1         1 VK9       0.084200
     39 H10         13.7030   -10.4120    -3.0090 h1         1 VK9       0.069200
     40 H11         12.5260   -11.6840    -2.7630 h1         1 VK9       0.069200
     41 H12         11.9130   -10.6170    -5.1830 h1         1 VK9       0.063700
     42 H13         12.8720   -11.1840    -6.5380 h1         1 VK9       0.063700
     43 H15         16.1010   -11.8000    -0.0950 hc         1 VK9       0.049700
     44 H16         14.9520   -12.5400     1.0000 hc         1 VK9       0.049700
     45 H17         15.1300   -14.6960    -0.2890 hc         1 VK9       0.063700
     46 H18         16.2490   -13.9180    -1.4030 hc         1 VK9       0.063700
     47 H19         15.4440   -11.8730    -2.3890 hn         1 VK9       0.306500
     48 H20         13.1590   -12.8230    -4.7960 hc         1 VK9       0.050700
     49 H21         14.6620   -11.9320    -4.9210 hc         1 VK9       0.050700
     50 H22         14.6360    -9.6170    -5.7650 hn         1 VK9       0.311500
     51 H23         14.2060    -6.7350    -6.0040 h1         1 VK9       0.093200
     52 H24         13.8420    -6.5150    -4.2970 h1         1 VK9       0.093200
     53 H25         15.3930    -9.1270    -0.5320 h5         1 VK9       0.054100
     54 H26         19.6210    -9.8710    -1.8040 hn         1 VK9       0.508500
     55 H27         19.7710    -9.3000    -3.4260 hn         1 VK9       0.508500
     56 H14         16.5810    -7.2880    -6.5400 h5         1 VK9       0.071800
@<TRIPOS>BOND
     1     1     2 1   
     2     1    13 1   
     3     1    30 1   
     4     1    31 1   
     5     2     3 1   
     6     2    32 1   
     7     2    33 1   
     8     3     4 1   
     9     3    12 1   
    10     3    34 1   
    11     4     5 1   
    12     4    35 1   
    13     4    36 1   
    14     5    11 1   
    15     5    37 1   
    16     5    38 1   
    17     6    17 1   
    18     6    18 1   
    19     6    39 1   
    20     6    40 1   
    21     7    18 1   
    22     7    19 1   
    23     7    41 1   
    24     7    42 1   
    25     8    19 1   
    26     8    20 2   
    27     8    21 1   
    28     9    22 1   
    29     9    23 2   
    30     9    56 1   
    31    10    22 1   
    32    10    24 ar  
    33    10    25 ar  
    34    11    12 1   
    35    13    14 1   
    36    13    43 1   
    37    13    44 1   
    38    14    15 1   
    39    14    45 1   
    40    14    46 1   
    41    15    16 2   
    42    15    17 1   
    43    17    47 1   
    44    18    48 1   
    45    18    49 1   
    46    19    50 1   
    47    21    22 1   
    48    21    51 1   
    49    21    52 1   
    50    23    24 1   
    51    24    28 ar  
    52    25    26 ar  
    53    26    27 ar  
    54    26    53 1   
    55    27    28 ar  
    56    28    29 1   
    57    29    54 1   
    58    29    55 1   
@<TRIPOS>SUBSTRUCTURE
     1 VK9         1 TEMP              0 ****  ****    0 ROOT
