@<TRIPOS>MOLECULE
VK9
   56    58     1     0     0
SMALL
No Charge or Current Charge


@<TRIPOS>ATOM
      1 C4          17.1040   -13.5730     1.2100 c3         1 VK9      -0.075400
      2 C5          17.4630   -12.9230     2.5700 c3         1 VK9      -0.064400
      3 C6          17.6590   -11.3850     2.5560 c5         1 VK9       0.101300
      4 C7          18.7800   -10.8680     1.6070 c5         1 VK9      -0.085400
      5 C8          18.7400    -9.3300     1.8060 c5         1 VK9       0.057600
      6 C13         13.8820   -11.1530    -3.2220 c3         1 VK9       0.094000
      7 C15         12.5700   -10.7810    -5.4150 c3         1 VK9       0.100000
      8 C17         13.2280    -8.3770    -5.0160 c          1 VK9       0.597100
      9 C21         16.6980    -8.1040    -5.9450 cc         1 VK9       0.401700
     10 C24         16.1000    -8.0250    -3.7850 ca         1 VK9       0.120500
     11 S8          19.0430    -9.0300     3.6130 ss         1 VK9      -0.247000
     12 S6          18.1510   -10.8150     4.2550 ss         1 VK9      -0.280000
     13 C3          15.8240   -13.0050     0.5550 c3         1 VK9      -0.077400
     14 C2          15.4800   -13.6770    -0.7960 c3         1 VK9      -0.164400
     15 C1          14.3430   -12.9280    -1.4950 c          1 VK9       0.602100
     16 O2          13.1670   -13.0840    -1.2030 o          1 VK9      -0.597100
     17 N2          14.7560   -12.0590    -2.4780 ns         1 VK9      -0.510900
     18 C14         13.4070   -11.7570    -4.5590 c3         1 VK9      -0.121400
     19 N16         13.3170    -9.5570    -5.7270 ns         1 VK9      -0.504900
     20 O18         12.3870    -8.2000    -4.1450 o          1 VK9      -0.580100
     21 C19         14.2910    -7.3250    -5.3690 c3         1 VK9      -0.009400
     22 N20         15.6740    -7.7640    -5.0570 na         1 VK9      -0.288300
     23 N22         17.7620    -8.5930    -5.2810 nd         1 VK9      -0.543100
     24 C23         17.3630    -8.5400    -3.9380 ca         1 VK9      -0.103600
     25 N28         15.5240    -7.8740    -2.5750 nb         1 VK9      -0.206000
     26 C27         16.2720    -8.2730    -1.5170 ca         1 VK9       0.181900
     27 N26         17.5220    -8.7980    -1.5590 nb         1 VK9      -0.321000
     28 C25         18.0650    -8.9290    -2.7790 ca         1 VK9       0.451900
     29 N29         19.3190    -9.4500    -2.8220 nv         1 VK9      -1.063900
     30 H1          16.9750   -14.6520     1.3630 hc         1 VK9       0.042700
     31 H2          17.9480   -13.4590     0.5190 hc         1 VK9       0.042700
     32 H3          16.6760   -13.1750     3.2920 hc         1 VK9       0.060200
     33 H4          18.3770   -13.4000     2.9430 hc         1 VK9       0.060200
     34 H5          16.6990   -10.9140     2.3040 h1         1 VK9       0.085700
     35 H6          18.5800   -11.1270     0.5610 hc         1 VK9       0.068700
     36 H7          19.7590   -11.2880     1.8630 hc         1 VK9       0.068700
     37 H8          19.5050    -8.8160     1.2090 h1         1 VK9       0.084200
     38 H9          17.7620    -8.9160     1.5250 h1         1 VK9       0.084200
     39 H10         14.4500   -10.2370    -3.4170 h1         1 VK9       0.069200
     40 H11         13.0140   -10.8820    -2.6050 h1         1 VK9       0.069200
     41 H12         11.6420   -10.5260    -4.8850 h1         1 VK9       0.063700
     42 H13         12.2910   -11.2710    -6.3570 h1         1 VK9       0.063700
     43 H15         15.9550   -11.9300     0.3800 hc         1 VK9       0.049700
     44 H16         14.9770   -13.1160     1.2440 hc         1 VK9       0.049700
     45 H17         15.1730   -14.7120    -0.6080 hc         1 VK9       0.063700
     46 H18         16.3780   -13.6550    -1.4250 hc         1 VK9       0.063700
     47 H19         15.7540   -12.0080    -2.6460 hn         1 VK9       0.306500
     48 H20         12.8120   -12.6570    -4.3580 hc         1 VK9       0.050700
     49 H21         14.2810   -12.0760    -5.1390 hc         1 VK9       0.050700
     50 H22         14.0450    -9.6090    -6.4300 hn         1 VK9       0.311500
     51 H23         14.2060    -7.1060    -6.4410 h1         1 VK9       0.093200
     52 H24         14.0640    -6.4090    -4.8100 h1         1 VK9       0.093200
     53 H25         15.8210    -8.1610    -0.5330 h5         1 VK9       0.054100
     54 H26         19.8760    -9.4190    -1.9740 hn         1 VK9       0.508500
     55 H27         19.8220    -9.3600    -3.7010 hn         1 VK9       0.508500
     56 H14         16.6000    -7.9970    -7.0200 h5         1 VK9       0.071800
@<TRIPOS>BOND
     1     1     2 1   
     2     1    13 1   
     3     1    30 1   
     4     1    31 1   
     5     2     3 1   
     6     2    32 1   
     7     2    33 1   
     8     3     4 1   
     9     3    12 1   
    10     3    34 1   
    11     4     5 1   
    12     4    35 1   
    13     4    36 1   
    14     5    11 1   
    15     5    37 1   
    16     5    38 1   
    17     6    17 1   
    18     6    18 1   
    19     6    39 1   
    20     6    40 1   
    21     7    18 1   
    22     7    19 1   
    23     7    41 1   
    24     7    42 1   
    25     8    19 1   
    26     8    20 2   
    27     8    21 1   
    28     9    22 1   
    29     9    23 2   
    30     9    56 1   
    31    10    22 1   
    32    10    24 ar  
    33    10    25 ar  
    34    11    12 1   
    35    13    14 1   
    36    13    43 1   
    37    13    44 1   
    38    14    15 1   
    39    14    45 1   
    40    14    46 1   
    41    15    16 2   
    42    15    17 1   
    43    17    47 1   
    44    18    48 1   
    45    18    49 1   
    46    19    50 1   
    47    21    22 1   
    48    21    51 1   
    49    21    52 1   
    50    23    24 1   
    51    24    28 ar  
    52    25    26 ar  
    53    26    27 ar  
    54    26    53 1   
    55    27    28 ar  
    56    28    29 1   
    57    29    54 1   
    58    29    55 1   
@<TRIPOS>SUBSTRUCTURE
     1 VK9         1 TEMP              0 ****  ****    0 ROOT
