@<TRIPOS>MOLECULE
VKA
  170   177     1     0     0
SMALL
abcg2


@<TRIPOS>ATOM
      1 C1          -4.5660    -9.1360    12.5510 cc         1 VKA      -0.181000
      2 C2          -4.1640   -10.2720    13.2030 cd         1 VKA       0.299300
      3 C4          -2.5960   -10.2230    11.6580 cc         1 VKA       0.412300
      4 C6          -5.7050    -8.2570    12.8210 ca         1 VKA      -0.010000
      5 C7          -6.5350    -7.8190    11.7870 ca         1 VKA      -0.093500
      6 C9          -7.0730    -7.0080    14.3720 ca         1 VKA      -0.101000
      7 C10         -7.6200    -6.9970    12.0460 ca         1 VKA      -0.101000
      8 C11         -7.9080    -6.5850    13.3430 ca         1 VKA      -0.087300
      9 C12         -9.1230    -5.7460    13.6580 c3         1 VKA       0.152300
     10 C14         -8.8680    -3.7470    12.2840 c          1 VKA       0.605100
     11 C16         -9.3640    -3.0380    11.0310 c5         1 VKA       0.034700
     12 C           -5.9860    -7.8300    14.1190 ca         1 VKA      -0.093500
     13 S3          -3.4900    -8.8240    11.2380 ss         1 VKA      -0.031400
     14 N5          -3.0480   -10.8680    12.6820 nd         1 VKA      -0.637000
     15 N13         -9.5320    -4.8730    12.5880 ns         1 VKA      -0.500900
     16 O15         -7.9010    -3.3520    12.9150 o          1 VKA      -0.593100
     17 N17         -9.3050    -1.5950    11.1740 n          1 VKA      -0.384800
     18 C18         -8.5880    -0.9620    10.0720 c5         1 VKA       0.112000
     19 C19         -8.5730    -2.0420     9.0030 c5         1 VKA       0.151300
     20 C20         -8.4420    -3.3110     9.8380 c5         1 VKA      -0.127400
     21 C21        -10.0340    -1.0140    12.1420 c          1 VKA       0.610100
     22 O22         -9.8040    -1.9820     8.3190 oh         1 VKA      -0.641000
     23 O23        -10.7360    -1.6880    12.8850 o          1 VKA      -0.615100
     24 C24         -9.9510     0.5030    12.3190 c3         1 VKA       0.057700
     25 C25         -8.9450     0.9290    13.4240 c3         1 VKA      -0.044000
     26 N26        -11.2770     1.0060    12.5850 ns         1 VKA      -0.494900
     27 C27         -9.2710     0.3300    14.7920 c3         1 VKA      -0.092433
     28 C28         -7.5370     0.4860    13.0220 c3         1 VKA      -0.092433
     29 C29         -8.9460     2.4590    13.5110 c3         1 VKA      -0.092433
     30 C30        -12.2370     0.9700    11.6420 c          1 VKA       0.597100
     31 C31        -13.5690     1.5790    12.0310 c3         1 VKA      -0.160400
     32 C32        -13.4610     3.0090    12.5640 c3         1 VKA      -0.070400
     33 O32        -12.0310     0.4860    10.5370 o          1 VKA      -0.602100
     34 C33        -12.7150     3.9460    11.6230 c3         1 VKA      -0.083400
     35 C34        -12.5390     5.3510    12.1930 c3         1 VKA      -0.074400
     36 C35        -11.4930     6.1880    11.4570 c3         1 VKA      -0.072400
     37 C36        -10.0820     5.6420    11.6450 c3         1 VKA      -0.082400
     38 C37         -8.9780     6.4840    11.0160 c3         1 VKA      -0.076400
     39 C38         -7.5930     5.8620    11.1980 c3         1 VKA      -0.062400
     40 C39         -7.1130     5.9230    12.6430 c3         1 VKA      -0.160400
     41 C40         -5.8530     5.1250    12.9090 c          1 VKA       0.600100
     42 N41         -5.8140     4.5640    14.1260 ns         1 VKA      -0.507900
     43 O42         -4.9490     5.0250    12.0890 o          1 VKA      -0.616100
     44 C43         -4.7100     3.8380    14.7010 c3         1 VKA       0.103000
     45 C44         -4.6540     4.1470    16.1950 c3         1 VKA       0.153800
     46 N45         -5.9620     4.0050    16.8030 n3         1 VKA      -0.758600
     47 C47         -6.1730     4.8350    17.9730 c6         1 VKA       0.171800
     48 C48         -7.6340     4.7790    18.3830 c6         1 VKA       0.166800
     49 N49         -8.0160     3.4120    18.6690 n3         1 VKA      -0.726600
     50 C50         -7.7760     2.5580    17.5250 c6         1 VKA       0.166800
     51 C51         -6.3250     2.6310    17.0900 c6         1 VKA       0.171800
     52 C52         -9.3480     3.2710    19.2360 c3         1 VKA       0.220100
     53 C53        -10.4950     3.5800    18.2980 ca         1 VKA      -0.122300
     54 C54        -11.0300     4.8610    18.2100 ca         1 VKA      -0.083000
     55 C55        -12.0470     5.1710    17.3040 cp         1 VKA      -0.039000
     56 C56        -12.5210     4.1600    16.4660 ca         1 VKA      -0.098000
     57 C57        -12.0010     2.8780    16.5470 ca         1 VKA      -0.118000
     58 C58        -11.0010     2.5870    17.4620 ca         1 VKA      -0.095000
     59 C59        -12.6300     6.5270    17.2350 cp         1 VKA      -0.014000
     60 C60        -12.8410     7.2670    18.3990 ca         1 VKA      -0.113000
     61 C61        -13.4370     8.5200    18.3410 ca         1 VKA      -0.024000
     62 C62        -13.8280     9.0650    17.1030 ca         1 VKA       0.203000
     63 C63        -13.6060     8.3240    15.9520 ca         1 VKA      -0.115000
     64 C64        -13.0170     7.0710    16.0130 ca         1 VKA      -0.112000
     65 N65        -14.4570    10.3280    17.1160 nh         1 VKA      -0.803400
     66 C66        -15.5540    10.5200    16.1830 c6         1 VKA       0.181300
     67 C67        -16.3100    11.7800    16.5590 c6         1 VKA       0.161800
     68 N68        -15.4280    12.9290    16.5520 n3         1 VKA      -0.715600
     69 C69        -14.3160    12.7280    17.4570 c6         1 VKA       0.161800
     70 C70        -13.5490    11.4710    17.0960 c6         1 VKA       0.181300
     71 C71        -16.1440    14.1480    16.8490 c3         1 VKA       0.151100
     72 N72        -13.7550     9.2950    19.4600 ns         1 VKA      -0.132000
     73 C73        -13.2720     9.2240    20.7130 c          1 VKA       0.619300
     74 C74        -13.8920    10.2430    21.6330 ce         1 VKA      -0.247800
     75 C75        -15.0840     9.7840    22.3520 ce         1 VKA       0.543500
     76 N76        -15.7280    10.4250    23.2480 nf         1 VKA      -0.612100
     77 C77        -15.2720    11.6920    23.6270 c          1 VKA       0.692500
     78 C78        -14.1770    12.3610    22.8320 c6         1 VKA      -0.183200
     79 C79        -13.4510    11.4790    21.8750 c2         1 VKA      -0.135400
     80 C80        -12.2530    12.0890    21.2040 c3         1 VKA       0.350200
     81 O85        -12.4840     8.4050    21.1400 o          1 VKA      -0.553100
     82 O86        -15.7810    12.2440    24.5690 o          1 VKA      -0.469100
     83 C87         -4.8390   -10.9040    14.3740 c3         1 VKA      -0.121400
     84 F82        -12.6080    13.1570    20.4830 f          1 VKA      -0.102333
     85 F83        -11.3640    12.5020    22.1100 f          1 VKA      -0.102333
     86 F84        -11.6270    11.2450    20.3870 f          1 VKA      -0.102333
     87 H1          -1.7240   -10.5200    11.0900 h5         1 VKA       0.052100
     88 H2          -6.3450    -8.1380    10.7690 ha         1 VKA       0.117500
     89 H3          -7.2660    -6.6840    15.3880 ha         1 VKA       0.112500
     90 H4          -8.2470    -6.6800    11.2220 ha         1 VKA       0.112500
     91 H5          -8.9440    -5.1650    14.5650 h1         1 VKA       0.061200
     92 H6          -9.9660    -6.4030    13.8750 h1         1 VKA       0.061200
     93 H7         -10.3870    -3.3530    10.8030 h1         1 VKA       0.072700
     94 H8          -5.3380    -8.1220    14.9350 ha         1 VKA       0.117500
     95 H9         -10.3320    -5.1380    12.0370 hn         1 VKA       0.318500
     96 H10         -7.5670    -0.7010    10.3580 h1         1 VKA       0.067700
     97 H11         -9.0890    -0.0590     9.7260 h1         1 VKA       0.067700
     98 H12         -7.7250    -1.9120     8.3220 h1         1 VKA       0.051700
     99 H13         -8.7160    -4.2180     9.3000 hc         1 VKA       0.065200
    100 H14         -7.4060    -3.4190    10.1690 hc         1 VKA       0.065200
    101 H15         -9.8640    -2.7460     7.7360 ho         1 VKA       0.441000
    102 H16         -9.6000     0.9720    11.3960 h1         1 VKA       0.070700
    103 H17        -11.5110     1.3180    13.5130 hn         1 VKA       0.322500
    104 H18         -8.5670     0.7180    15.5290 hc         1 VKA       0.040811
    105 H19        -10.2730     0.5830    15.1470 hc         1 VKA       0.040811
    106 H20         -9.1810    -0.7560    14.7970 hc         1 VKA       0.040811
    107 H21         -6.8170     0.8430    13.7620 hc         1 VKA       0.040811
    108 H22         -7.4390    -0.5980    12.9670 hc         1 VKA       0.040811
    109 H23         -7.2480     0.9080    12.0570 hc         1 VKA       0.040811
    110 H24         -8.1950     2.7920    14.2290 hc         1 VKA       0.040811
    111 H25         -8.6960     2.9040    12.5440 hc         1 VKA       0.040811
    112 H26         -9.9050     2.8750    13.8270 hc         1 VKA       0.040811
    113 H27        -14.2070     1.5550    11.1470 hc         1 VKA       0.070200
    114 H28        -14.0420     0.9400    12.7840 hc         1 VKA       0.070200
    115 H29        -14.4700     3.3860    12.7500 hc         1 VKA       0.037200
    116 H30        -12.9620     3.0110    13.5380 hc         1 VKA       0.037200
    117 H31        -11.7320     3.5170    11.4120 hc         1 VKA       0.049200
    118 H32        -13.2340     3.9990    10.6610 hc         1 VKA       0.049200
    119 H33        -12.2390     5.2720    13.2450 hc         1 VKA       0.033700
    120 H34        -13.5030     5.8690    12.1920 hc         1 VKA       0.033700
    121 H35        -11.7370     6.2420    10.3900 hc         1 VKA       0.039700
    122 H36        -11.5320     7.2160    11.8300 hc         1 VKA       0.039700
    123 H37         -9.9060     5.5300    12.7190 hc         1 VKA       0.037700
    124 H38        -10.0130     4.6330    11.2290 hc         1 VKA       0.037700
    125 H39         -9.1800     6.5940     9.9460 hc         1 VKA       0.040700
    126 H40         -8.9900     7.4960    11.4350 hc         1 VKA       0.040700
    127 H41         -7.6270     4.8220    10.8590 hc         1 VKA       0.053200
    128 H42         -6.8710     6.3700    10.5560 hc         1 VKA       0.053200
    129 H43         -6.9090     6.9660    12.9110 hc         1 VKA       0.055200
    130 H44         -7.9000     5.5920    13.3240 hc         1 VKA       0.055200
    131 H45         -6.5990     4.6780    14.7530 hn         1 VKA       0.331500
    132 H46         -4.8200     2.7620    14.5280 h1         1 VKA       0.052700
    133 H47         -3.7740     4.1390    14.2310 h1         1 VKA       0.052700
    134 H48         -3.8900     3.5170    16.6740 h1         1 VKA       0.042200
    135 H49         -4.3330     5.1840    16.3190 h1         1 VKA       0.042200
    136 H51         -5.5440     4.5210    18.8210 h1         1 VKA       0.040700
    137 H52         -5.9090     5.8670    17.7330 h1         1 VKA       0.040700
    138 H53         -7.7810     5.3870    19.2800 h1         1 VKA       0.040200
    139 H54         -8.2400     5.2290    17.5800 h1         1 VKA       0.040200
    140 H56         -8.4070     2.8280    16.6640 h1         1 VKA       0.040200
    141 H57         -8.0210     1.5260    17.7910 h1         1 VKA       0.040200
    142 H58         -6.2040     2.0180    16.1930 h1         1 VKA       0.040700
    143 H59         -5.6760     2.2000    17.8700 h1         1 VKA       0.040700
    144 H60         -9.4040     3.9190    20.1140 h1         1 VKA       0.061200
    145 H61         -9.4490     2.2420    19.5930 h1         1 VKA       0.061200
    146 H62        -10.6390     5.6380    18.8580 ha         1 VKA       0.120000
    147 H63        -13.3230     4.3640    15.7670 ha         1 VKA       0.114000
    148 H64        -12.3880     2.0990    15.9020 ha         1 VKA       0.111000
    149 H65        -10.6100     1.5780    17.5280 ha         1 VKA       0.116000
    150 H66        -12.5850     6.8360    19.3550 ha         1 VKA       0.146000
    151 H67        -13.8900     8.7300    14.9890 ha         1 VKA       0.120000
    152 H68        -12.8410     6.5270    15.0940 ha         1 VKA       0.120000
    153 H69        -15.2040    10.6080    15.1440 h1         1 VKA       0.047950
    154 H70        -16.2240     9.6610    16.2370 h1         1 VKA       0.047950
    155 H71        -17.1130    11.9420    15.8360 h1         1 VKA       0.038200
    156 H72        -16.7830    11.6330    17.5460 h1         1 VKA       0.038200
    157 H74        -14.6530    12.6510    18.5060 h1         1 VKA       0.038200
    158 H75        -13.6450    13.5880    17.3960 h1         1 VKA       0.038200
    159 H76        -12.7480    11.3160    17.8190 h1         1 VKA       0.047950
    160 H77        -13.0830    11.5850    16.1070 h1         1 VKA       0.047950
    161 H78        -15.4670    15.0030    16.7930 h1         1 VKA       0.033033
    162 H79        -16.9380    14.3030    16.1170 h1         1 VKA       0.033033
    163 H80        -16.6040    14.1490    17.8490 h1         1 VKA       0.033033
    164 H81        -14.3930    10.0530    19.2350 hn         1 VKA       0.183000
    165 H82        -15.4610     8.7980    22.0900 h4         1 VKA       0.045800
    166 H83        -13.4890    12.8410    23.5330 hc         1 VKA       0.110200
    167 H84        -14.6390    13.1860    22.2730 hc         1 VKA       0.110200
    168 H85         -4.8300   -11.9890    14.2740 hc         1 VKA       0.051367
    169 H86         -4.3290   -10.6590    15.3080 hc         1 VKA       0.051367
    170 H87         -5.8730   -10.5790    14.4700 hc         1 VKA       0.051367
@<TRIPOS>BOND
     1     1     2 2   
     2     1     4 1   
     3     1    13 1   
     4     2    14 1   
     5     2    83 1   
     6     3    13 1   
     7     3    14 2   
     8     3    87 1   
     9     4     5 ar  
    10     4    12 ar  
    11     5     7 ar  
    12     5    88 1   
    13     6     8 ar  
    14     6    12 ar  
    15     6    89 1   
    16     7     8 ar  
    17     7    90 1   
    18     8     9 1   
    19     9    15 1   
    20     9    91 1   
    21     9    92 1   
    22    10    11 1   
    23    10    15 1   
    24    10    16 2   
    25    11    17 1   
    26    11    20 1   
    27    11    93 1   
    28    12    94 1   
    29    15    95 1   
    30    17    18 1   
    31    17    21 1   
    32    18    19 1   
    33    18    96 1   
    34    18    97 1   
    35    19    20 1   
    36    19    22 1   
    37    19    98 1   
    38    20    99 1   
    39    20   100 1   
    40    21    23 2   
    41    21    24 1   
    42    22   101 1   
    43    24    25 1   
    44    24    26 1   
    45    24   102 1   
    46    25    27 1   
    47    25    28 1   
    48    25    29 1   
    49    26    30 1   
    50    26   103 1   
    51    27   104 1   
    52    27   105 1   
    53    27   106 1   
    54    28   107 1   
    55    28   108 1   
    56    28   109 1   
    57    29   110 1   
    58    29   111 1   
    59    29   112 1   
    60    30    31 1   
    61    30    33 2   
    62    31    32 1   
    63    31   113 1   
    64    31   114 1   
    65    32    34 1   
    66    32   115 1   
    67    32   116 1   
    68    34    35 1   
    69    34   117 1   
    70    34   118 1   
    71    35    36 1   
    72    35   119 1   
    73    35   120 1   
    74    36    37 1   
    75    36   121 1   
    76    36   122 1   
    77    37    38 1   
    78    37   123 1   
    79    37   124 1   
    80    38    39 1   
    81    38   125 1   
    82    38   126 1   
    83    39    40 1   
    84    39   127 1   
    85    39   128 1   
    86    40    41 1   
    87    40   129 1   
    88    40   130 1   
    89    41    42 1   
    90    41    43 2   
    91    42    44 1   
    92    42   131 1   
    93    44    45 1   
    94    44   132 1   
    95    44   133 1   
    96    45    46 1   
    97    45   134 1   
    98    45   135 1   
    99    46    47 1   
   100    46    51 1   
   101    47    48 1   
   102    47   136 1   
   103    47   137 1   
   104    48    49 1   
   105    48   138 1   
   106    48   139 1   
   107    49    50 1   
   108    49    52 1   
   109    50    51 1   
   110    50   140 1   
   111    50   141 1   
   112    51   142 1   
   113    51   143 1   
   114    52    53 1   
   115    52   144 1   
   116    52   145 1   
   117    53    54 ar  
   118    53    58 ar  
   119    54    55 ar  
   120    54   146 1   
   121    55    56 ar  
   122    55    59 1   
   123    56    57 ar  
   124    56   147 1   
   125    57    58 ar  
   126    57   148 1   
   127    58   149 1   
   128    59    60 ar  
   129    59    64 ar  
   130    60    61 ar  
   131    60   150 1   
   132    61    62 ar  
   133    61    72 1   
   134    62    63 ar  
   135    62    65 1   
   136    63    64 ar  
   137    63   151 1   
   138    64   152 1   
   139    65    66 1   
   140    65    70 1   
   141    66    67 1   
   142    66   153 1   
   143    66   154 1   
   144    67    68 1   
   145    67   155 1   
   146    67   156 1   
   147    68    69 1   
   148    68    71 1   
   149    69    70 1   
   150    69   157 1   
   151    69   158 1   
   152    70   159 1   
   153    70   160 1   
   154    71   161 1   
   155    71   162 1   
   156    71   163 1   
   157    72    73 1   
   158    72   164 1   
   159    73    74 1   
   160    73    81 2   
   161    74    75 1   
   162    74    79 2   
   163    75    76 2   
   164    75   165 1   
   165    76    77 1   
   166    77    78 1   
   167    77    82 2   
   168    78    79 1   
   169    78   166 1   
   170    78   167 1   
   171    79    80 1   
   172    80    84 1   
   173    80    85 1   
   174    80    86 1   
   175    83   168 1   
   176    83   169 1   
   177    83   170 1   
@<TRIPOS>SUBSTRUCTURE
     1 VKA         1 TEMP              0 ****  ****    0 ROOT
