@<TRIPOS>MOLECULE
VKA
  170   177     1     0     0
SMALL
No Charge or Current Charge


@<TRIPOS>ATOM
      1 C1          -4.1370    -8.8340    14.1480 cc         1 VKA      -0.181000
      2 C2          -3.6470    -9.0930    15.4130 cd         1 VKA       0.299300
      3 C4          -2.0040    -9.9270    14.1650 cc         1 VKA       0.412300
      4 C6          -5.4410    -8.2140    13.9210 ca         1 VKA      -0.010000
      5 C7          -6.3750    -8.8390    13.0740 ca         1 VKA      -0.093500
      6 C9          -7.0250    -6.3890    14.2780 ca         1 VKA      -0.101000
      7 C10         -7.6290    -8.2510    12.8380 ca         1 VKA      -0.101000
      8 C11         -7.9630    -7.0240    13.4430 ca         1 VKA      -0.087300
      9 C12         -9.3180    -6.3810    13.1820 c3         1 VKA       0.152300
     10 C14         -9.0330    -4.1100    12.1430 c          1 VKA       0.605100
     11 C16         -8.9730    -3.4930    10.7090 c5         1 VKA       0.034700
     12 C           -5.7710    -6.9790    14.5130 ca         1 VKA      -0.093500
     13 S3          -3.0880    -9.4180    12.8940 ss         1 VKA      -0.031400
     14 N5          -2.4060    -9.7140    15.4150 nd         1 VKA      -0.637000
     15 N13         -9.2580    -5.4670    12.0430 ns         1 VKA      -0.500900
     16 O15         -8.9080    -3.5270    13.2130 o          1 VKA      -0.593100
     17 N17         -9.1470    -2.0160    10.6470 n          1 VKA      -0.384800
     18 C18         -8.2240    -1.3820     9.6700 c5         1 VKA       0.112000
     19 C19         -7.4990    -2.5960     9.0130 c5         1 VKA       0.151300
     20 C20         -7.5210    -3.6320    10.1630 c5         1 VKA      -0.127400
     21 C21        -10.3300    -1.3880    11.0990 c          1 VKA       0.610100
     22 O22         -8.1950    -3.0810     7.8610 oh         1 VKA      -0.641000
     23 O23        -11.2950    -2.0740    11.4260 o          1 VKA      -0.615100
     24 C24        -10.3700     0.1770    11.2160 c3         1 VKA       0.057700
     25 C25         -9.7520     0.7440    12.5550 c3         1 VKA      -0.044000
     26 N26        -11.7690     0.6350    11.0230 ns         1 VKA      -0.494900
     27 C27        -10.4400     0.1070    13.7930 c3         1 VKA      -0.092433
     28 C28         -8.2300     0.4500    12.6340 c3         1 VKA      -0.092433
     29 C29         -9.9360     2.2890    12.6360 c3         1 VKA      -0.092433
     30 C30        -12.1570     1.6520    10.1820 c          1 VKA       0.597100
     31 C31        -13.6450     2.0150    10.2450 c3         1 VKA      -0.160400
     32 C32        -13.9340     3.1740    11.2350 c3         1 VKA      -0.070400
     33 O32        -11.3730     2.2130     9.4300 o          1 VKA      -0.602100
     34 C33        -13.1050     4.4560    10.9880 c3         1 VKA      -0.083400
     35 C34        -13.4220     5.5860    11.9940 c3         1 VKA      -0.074400
     36 C35        -12.4840     6.8150    11.8930 c3         1 VKA      -0.072400
     37 C36        -11.0120     6.5080    12.2630 c3         1 VKA      -0.082400
     38 C37        -10.1130     7.7630    12.3410 c3         1 VKA      -0.076400
     39 C38         -8.6080     7.4470    12.5360 c3         1 VKA      -0.062400
     40 C39         -8.2820     6.7120    13.8590 c3         1 VKA      -0.160400
     41 C40         -6.7840     6.4240    14.0110 c          1 VKA       0.600100
     42 N41         -6.4330     5.1090    13.8180 ns         1 VKA      -0.507900
     43 O42         -5.9720     7.2830    14.3250 o          1 VKA      -0.616100
     44 C43         -5.2010     4.4990    14.3380 c3         1 VKA       0.103000
     45 C44         -5.2090     4.4310    15.8910 c3         1 VKA       0.153800
     46 N45         -6.5080     3.9800    16.4590 n3         1 VKA      -0.758600
     47 C47         -6.6760     4.2670    17.9120 c6         1 VKA       0.171800
     48 C48         -8.1370     3.9690    18.3740 c6         1 VKA       0.166800
     49 N49         -8.5620     2.5600    18.0910 n3         1 VKA      -0.726600
     50 C50         -8.3100     2.2140    16.6530 c6         1 VKA       0.166800
     51 C51         -6.8590     2.5530    16.1820 c6         1 VKA       0.171800
     52 C52         -9.9470     2.2500    18.5420 c3         1 VKA       0.220100
     53 C53        -11.0500     2.8550    17.6660 ca         1 VKA      -0.122300
     54 C54        -11.4190     4.2090    17.7980 ca         1 VKA      -0.083000
     55 C55        -12.3830     4.8000    16.9440 cp         1 VKA      -0.039000
     56 C56        -12.9980     3.9790    15.9670 ca         1 VKA      -0.098000
     57 C57        -12.6610     2.6210    15.8490 ca         1 VKA      -0.118000
     58 C58        -11.6920     2.0610    16.6960 ca         1 VKA      -0.095000
     59 C59        -12.7190     6.2550    17.0510 cp         1 VKA      -0.014000
     60 C60        -12.7920     6.9040    18.3080 ca         1 VKA      -0.113000
     61 C61        -13.0920     8.2840    18.4170 ca         1 VKA      -0.024000
     62 C62        -13.2950     9.0370    17.2350 ca         1 VKA       0.203000
     63 C63        -13.2260     8.3990    15.9840 ca         1 VKA      -0.115000
     64 C64        -12.9470     7.0290    15.8930 ca         1 VKA      -0.112000
     65 N65        -13.5680    10.4230    17.2830 nh         1 VKA      -0.803400
     66 C66        -14.9320    10.8760    16.8570 c6         1 VKA       0.181300
     67 C67        -15.2000    12.3960    17.1150 c6         1 VKA       0.161800
     68 N68        -14.1390    13.2790    16.5430 n3         1 VKA      -0.715600
     69 C69        -12.8040    12.8580    17.0620 c6         1 VKA       0.161800
     70 C70        -12.4970    11.3490    16.7900 c6         1 VKA       0.181300
     71 C71        -14.4110    14.7140    16.7660 c3         1 VKA       0.151100
     72 N72        -13.1520     8.9510    19.6790 ns         1 VKA      -0.132000
     73 C73        -13.3000     8.4670    20.9710 c          1 VKA       0.619300
     74 C74        -13.1400     9.4230    22.1410 ce         1 VKA      -0.247800
     75 C75        -13.2630     8.7550    23.4630 ce         1 VKA       0.543500
     76 N76        -13.0190     9.3600    24.5930 nf         1 VKA      -0.612100
     77 C77        -12.2860    10.5420    24.5390 c          1 VKA       0.692500
     78 C78        -12.7820    11.5030    23.4690 c6         1 VKA      -0.183200
     79 C79        -12.8900    10.7830    22.1070 c2         1 VKA      -0.135400
     80 C80        -12.7880    11.7150    20.8840 c3         1 VKA       0.350200
     81 O85        -13.5470     7.2860    21.1750 o          1 VKA      -0.553100
     82 O86        -11.2200    10.6630    25.1200 o          1 VKA      -0.469100
     83 C87         -4.3130    -8.7960    16.7320 c3         1 VKA      -0.121400
     84 F82        -13.9140    11.6550    20.1450 f          1 VKA      -0.102333
     85 F83        -12.6230    13.0190    21.2070 f          1 VKA      -0.102333
     86 F84        -11.7440    11.3830    20.0930 f          1 VKA      -0.102333
     87 H1          -1.0670   -10.3990    13.8950 h5         1 VKA       0.052100
     88 H2          -6.1300    -9.7880    12.6020 ha         1 VKA       0.117500
     89 H3          -7.2650    -5.4340    14.7410 ha         1 VKA       0.112500
     90 H4          -8.3410    -8.7490    12.1830 ha         1 VKA       0.112500
     91 H5          -9.6540    -5.8410    14.0770 h1         1 VKA       0.061200
     92 H6         -10.0620    -7.1600    12.9680 h1         1 VKA       0.061200
     93 H7          -9.7060    -3.9940    10.0630 h1         1 VKA       0.072700
     94 H8          -5.0520    -6.4670    15.1480 ha         1 VKA       0.117500
     95 H9          -9.3410    -5.8540    11.1110 hn         1 VKA       0.318500
     96 H10         -7.5000    -0.7330    10.1790 h1         1 VKA       0.067700
     97 H11         -8.7570    -0.7820     8.9210 h1         1 VKA       0.067700
     98 H12         -6.4690    -2.3290     8.7360 h1         1 VKA       0.051700
     99 H13         -7.2890    -4.6500     9.8290 hc         1 VKA       0.065200
    100 H14         -6.7810    -3.3690    10.9300 hc         1 VKA       0.065200
    101 H15         -7.6530    -3.8100     7.4840 ho         1 VKA       0.441000
    102 H16         -9.7760     0.5750    10.3860 h1         1 VKA       0.070700
    103 H17        -12.4950     0.1950    11.5760 hn         1 VKA       0.322500
    104 H18        -10.0230     0.5200    14.7190 hc         1 VKA       0.040811
    105 H19        -11.5190     0.3020    13.7950 hc         1 VKA       0.040811
    106 H20        -10.2890    -0.9780    13.8230 hc         1 VKA       0.040811
    107 H21         -7.7990     0.8720    13.5500 hc         1 VKA       0.040811
    108 H22         -8.0260    -0.6270    12.6510 hc         1 VKA       0.040811
    109 H23         -7.7000     0.8940    11.7840 hc         1 VKA       0.040811
    110 H24         -9.4260     2.7010    13.5150 hc         1 VKA       0.040811
    111 H25         -9.5230     2.7810    11.7470 hc         1 VKA       0.040811
    112 H26        -10.9940     2.5660    12.7190 hc         1 VKA       0.040811
    113 H27        -13.9810     2.3150     9.2450 hc         1 VKA       0.070200
    114 H28        -14.2190     1.1480    10.5940 hc         1 VKA       0.070200
    115 H29        -15.0020     3.4200    11.1890 hc         1 VKA       0.037200
    116 H30        -13.7390     2.8190    12.2550 hc         1 VKA       0.037200
    117 H31        -12.0440     4.2020    11.0630 hc         1 VKA       0.049200
    118 H32        -13.2790     4.8170     9.9670 hc         1 VKA       0.049200
    119 H33        -13.3700     5.1830    13.0120 hc         1 VKA       0.033700
    120 H34        -14.4570     5.9170    11.8420 hc         1 VKA       0.033700
    121 H35        -12.5290     7.2260    10.8770 hc         1 VKA       0.039700
    122 H36        -12.8630     7.5950    12.5650 hc         1 VKA       0.039700
    123 H37        -10.9980     5.9880    13.2280 hc         1 VKA       0.037700
    124 H38        -10.5840     5.8230    11.5220 hc         1 VKA       0.037700
    125 H39        -10.2280     8.3410    11.4150 hc         1 VKA       0.040700
    126 H40        -10.4590     8.4080    13.1590 hc         1 VKA       0.040700
    127 H41         -8.2550     6.8440    11.6900 hc         1 VKA       0.053200
    128 H42         -8.0460     8.3890    12.5040 hc         1 VKA       0.053200
    129 H43         -8.6050     7.3420    14.6950 hc         1 VKA       0.055200
    130 H44         -8.8300     5.7630    13.8780 hc         1 VKA       0.055200
    131 H45         -7.1940     4.4840    13.5880 hn         1 VKA       0.331500
    132 H46         -5.1190     3.4840    13.9300 h1         1 VKA       0.052700
    133 H47         -4.3310     5.0740    13.9960 h1         1 VKA       0.052700
    134 H48         -4.3900     3.7810    16.2280 h1         1 VKA       0.042200
    135 H49         -4.9880     5.4410    16.2600 h1         1 VKA       0.042200
    136 H51         -5.9770     3.6620    18.5080 h1         1 VKA       0.040700
    137 H52         -6.4530     5.3230    18.1220 h1         1 VKA       0.040700
    138 H53         -8.2200     4.1840    19.4490 h1         1 VKA       0.040200
    139 H54         -8.7930     4.6770    17.8500 h1         1 VKA       0.040200
    140 H56         -9.0040     2.7660    16.0030 h1         1 VKA       0.040200
    141 H57         -8.4950     1.1430    16.4840 h1         1 VKA       0.040200
    142 H58         -6.7860     2.3370    15.1070 h1         1 VKA       0.040700
    143 H59         -6.1530     1.8820    16.6940 h1         1 VKA       0.040700
    144 H60        -10.0910     2.5900    19.5770 h1         1 VKA       0.061200
    145 H61        -10.0830     1.1590    18.5610 h1         1 VKA       0.061200
    146 H62        -10.9270     4.8200    18.5490 ha         1 VKA       0.120000
    147 H63        -13.7530     4.3950    15.3050 ha         1 VKA       0.114000
    148 H64        -13.1490     2.0040    15.0980 ha         1 VKA       0.111000
    149 H65        -11.4320     1.0100    16.5920 ha         1 VKA       0.116000
    150 H66        -12.6020     6.3120    19.1950 ha         1 VKA       0.146000
    151 H67        -13.3820     8.9740    15.0750 ha         1 VKA       0.120000
    152 H68        -12.8810     6.5680    14.9120 ha         1 VKA       0.120000
    153 H69        -15.0660    10.6830    15.7820 h1         1 VKA       0.047950
    154 H70        -15.7010    10.2950    17.3880 h1         1 VKA       0.047950
    155 H71        -16.1780    12.6530    16.6840 h1         1 VKA       0.038200
    156 H72        -15.2810    12.5590    18.1990 h1         1 VKA       0.038200
    157 H74        -12.7490    13.0390    18.1450 h1         1 VKA       0.038200
    158 H75        -12.0110    13.4630    16.5990 h1         1 VKA       0.038200
    159 H76        -11.5370    11.0990    17.2660 h1         1 VKA       0.047950
    160 H77        -12.3640    11.2150    15.7060 h1         1 VKA       0.047950
    161 H78        -13.6360    15.3330    16.2950 h1         1 VKA       0.033033
    162 H79        -15.3800    14.9970    16.3330 h1         1 VKA       0.033033
    163 H80        -14.4330    14.9480    17.8390 h1         1 VKA       0.033033
    164 H81        -13.0490     9.9530    19.6030 hn         1 VKA       0.183000
    165 H82        -13.6100     7.7210    23.5090 h4         1 VKA       0.045800
    166 H83        -12.1100    12.3710    23.4630 hc         1 VKA       0.110200
    167 H84        -13.8030    11.8000    23.7420 hc         1 VKA       0.110200
    168 H85         -3.9410    -9.4560    17.5230 hc         1 VKA       0.051367
    169 H86         -4.1220    -7.7620    17.0420 hc         1 VKA       0.051367
    170 H87         -5.3980    -8.9380    16.6690 hc         1 VKA       0.051367
@<TRIPOS>BOND
     1     1     2 2   
     2     1     4 1   
     3     1    13 1   
     4     2    14 1   
     5     2    83 1   
     6     3    13 1   
     7     3    14 2   
     8     3    87 1   
     9     4     5 ar  
    10     4    12 ar  
    11     5     7 ar  
    12     5    88 1   
    13     6     8 ar  
    14     6    12 ar  
    15     6    89 1   
    16     7     8 ar  
    17     7    90 1   
    18     8     9 1   
    19     9    15 1   
    20     9    91 1   
    21     9    92 1   
    22    10    11 1   
    23    10    15 1   
    24    10    16 2   
    25    11    17 1   
    26    11    20 1   
    27    11    93 1   
    28    12    94 1   
    29    15    95 1   
    30    17    18 1   
    31    17    21 1   
    32    18    19 1   
    33    18    96 1   
    34    18    97 1   
    35    19    20 1   
    36    19    22 1   
    37    19    98 1   
    38    20    99 1   
    39    20   100 1   
    40    21    23 2   
    41    21    24 1   
    42    22   101 1   
    43    24    25 1   
    44    24    26 1   
    45    24   102 1   
    46    25    27 1   
    47    25    28 1   
    48    25    29 1   
    49    26    30 1   
    50    26   103 1   
    51    27   104 1   
    52    27   105 1   
    53    27   106 1   
    54    28   107 1   
    55    28   108 1   
    56    28   109 1   
    57    29   110 1   
    58    29   111 1   
    59    29   112 1   
    60    30    31 1   
    61    30    33 2   
    62    31    32 1   
    63    31   113 1   
    64    31   114 1   
    65    32    34 1   
    66    32   115 1   
    67    32   116 1   
    68    34    35 1   
    69    34   117 1   
    70    34   118 1   
    71    35    36 1   
    72    35   119 1   
    73    35   120 1   
    74    36    37 1   
    75    36   121 1   
    76    36   122 1   
    77    37    38 1   
    78    37   123 1   
    79    37   124 1   
    80    38    39 1   
    81    38   125 1   
    82    38   126 1   
    83    39    40 1   
    84    39   127 1   
    85    39   128 1   
    86    40    41 1   
    87    40   129 1   
    88    40   130 1   
    89    41    42 1   
    90    41    43 2   
    91    42    44 1   
    92    42   131 1   
    93    44    45 1   
    94    44   132 1   
    95    44   133 1   
    96    45    46 1   
    97    45   134 1   
    98    45   135 1   
    99    46    47 1   
   100    46    51 1   
   101    47    48 1   
   102    47   136 1   
   103    47   137 1   
   104    48    49 1   
   105    48   138 1   
   106    48   139 1   
   107    49    50 1   
   108    49    52 1   
   109    50    51 1   
   110    50   140 1   
   111    50   141 1   
   112    51   142 1   
   113    51   143 1   
   114    52    53 1   
   115    52   144 1   
   116    52   145 1   
   117    53    54 ar  
   118    53    58 ar  
   119    54    55 ar  
   120    54   146 1   
   121    55    56 ar  
   122    55    59 1   
   123    56    57 ar  
   124    56   147 1   
   125    57    58 ar  
   126    57   148 1   
   127    58   149 1   
   128    59    60 ar  
   129    59    64 ar  
   130    60    61 ar  
   131    60   150 1   
   132    61    62 ar  
   133    61    72 1   
   134    62    63 ar  
   135    62    65 1   
   136    63    64 ar  
   137    63   151 1   
   138    64   152 1   
   139    65    66 1   
   140    65    70 1   
   141    66    67 1   
   142    66   153 1   
   143    66   154 1   
   144    67    68 1   
   145    67   155 1   
   146    67   156 1   
   147    68    69 1   
   148    68    71 1   
   149    69    70 1   
   150    69   157 1   
   151    69   158 1   
   152    70   159 1   
   153    70   160 1   
   154    71   161 1   
   155    71   162 1   
   156    71   163 1   
   157    72    73 1   
   158    72   164 1   
   159    73    74 1   
   160    73    81 2   
   161    74    75 1   
   162    74    79 2   
   163    75    76 2   
   164    75   165 1   
   165    76    77 1   
   166    77    78 1   
   167    77    82 2   
   168    78    79 1   
   169    78   166 1   
   170    78   167 1   
   171    79    80 1   
   172    80    84 1   
   173    80    85 1   
   174    80    86 1   
   175    83   168 1   
   176    83   169 1   
   177    83   170 1   
@<TRIPOS>SUBSTRUCTURE
     1 VKA         1 TEMP              0 ****  ****    0 ROOT
