@<TRIPOS>MOLECULE
VKB
   36    38     1     0     0
SMALL
No Charge or Current Charge


@<TRIPOS>ATOM
      1 C1          42.2800   -23.9950     9.9550 ca         1 VKB       0.346900
      2 N1          43.3830   -24.3250    10.6880 nb         1 VKB      -0.720000
      3 C2          40.9290   -24.2840    10.3670 cp         1 VKB       0.312500
      4 C           43.1200   -24.9500    11.8390 ca         1 VKB       0.555900
      5 O           36.3490   -22.8730     7.2460 oh         1 VKB      -0.533100
      6 C11         41.9900   -25.1920    14.8170 ca         1 VKB      -0.091300
      7 C12         42.9370   -25.7380    15.7080 ca         1 VKB      -0.110000
      8 C13         43.3740   -24.9950    16.8180 ca         1 VKB      -0.109000
      9 C14         42.8660   -23.7060    17.0470 ca         1 VKB      -0.109000
     10 C15         41.9190   -23.1590    16.1660 ca         1 VKB      -0.109000
     11 C16         41.4810   -23.9010    15.0550 ca         1 VKB      -0.110000
     12 C3          39.7200   -23.9120     9.5450 cp         1 VKB      -0.166500
     13 C4          39.7950   -22.9330     8.5160 ca         1 VKB      -0.050000
     14 C5          38.6660   -22.5910     7.7520 ca         1 VKB      -0.181500
     15 C6          37.4350   -23.2130     7.9940 ca         1 VKB       0.146100
     16 C7          37.3280   -24.1790     9.0030 ca         1 VKB      -0.181500
     17 C8          38.4540   -24.5240     9.7700 ca         1 VKB      -0.050000
     18 C9          41.7880   -25.2640    12.2860 ca         1 VKB       0.263300
     19 N2          40.6940   -24.9310    11.5440 nb         1 VKB      -0.630000
     20 H1          42.4810   -23.4980     9.0090 h4         1 VKB       0.027100
     21 H2          45.0920   -24.7330    12.1160 hn         1 VKB       0.477000
     22 H3          44.2400   -25.3290    13.4910 hn         1 VKB       0.477000
     23 H4          35.5830   -23.4040     7.5540 ho         1 VKB       0.466000
     24 H5          40.4470   -26.2000    13.7090 hc         1 VKB       0.070200
     25 H6          42.0060   -26.9700    13.5740 hc         1 VKB       0.070200
     26 H7          43.3340   -26.7380    15.5440 ha         1 VKB       0.117500
     27 H8          44.1050   -25.4210    17.5030 ha         1 VKB       0.114000
     28 H9          43.2050   -23.1320    17.9080 ha         1 VKB       0.114000
     29 H10         41.5230   -22.1610    16.3440 ha         1 VKB       0.114000
     30 H11         40.7450   -23.4700    14.3780 ha         1 VKB       0.117500
     31 H12         40.7290   -22.4160     8.3070 ha         1 VKB       0.121500
     32 H13         38.7480   -21.8380     6.9720 ha         1 VKB       0.121000
     33 H14         36.3770   -24.6680     9.2000 ha         1 VKB       0.121000
     34 H15         38.3410   -25.2810    10.5440 ha         1 VKB       0.121500
     35 N           44.2800   -25.2180    12.4830 nv         1 VKB      -1.044900
     36 C10         41.5180   -25.9880    13.6040 c3         1 VKB      -0.078400
@<TRIPOS>BOND
     1     1     2 ar  
     2     1     3 ar  
     3     1    20 1   
     4     2     4 ar  
     5     3    12 1   
     6     3    19 ar  
     7     4    18 ar  
     8     4    35 1   
     9     5    15 1   
    10     5    23 1   
    11     6     7 ar  
    12     6    11 ar  
    13     6    36 1   
    14     7     8 ar  
    15     7    26 1   
    16     8     9 ar  
    17     8    27 1   
    18     9    10 ar  
    19     9    28 1   
    20    10    11 ar  
    21    10    29 1   
    22    11    30 1   
    23    12    13 ar  
    24    12    17 ar  
    25    13    14 ar  
    26    13    31 1   
    27    14    15 ar  
    28    14    32 1   
    29    15    16 ar  
    30    16    17 ar  
    31    16    33 1   
    32    17    34 1   
    33    18    19 ar  
    34    18    36 1   
    35    21    35 1   
    36    22    35 1   
    37    24    36 1   
    38    25    36 1   
@<TRIPOS>SUBSTRUCTURE
     1 VKB         1 TEMP              0 ****  ****    0 ROOT
