@<TRIPOS>MOLECULE
VKB
   36    38     1     0     0
SMALL
bcc


@<TRIPOS>ATOM
      1 C1          42.2830   -24.0530     9.8860 ca         1 VKB       0.346900
      2 N1          43.3620   -24.3970    10.5750 nb         1 VKB      -0.720000
      3 C2          40.9960   -24.2880    10.3500 cp         1 VKB       0.312500
      4 C           43.1970   -25.0040    11.7410 ca         1 VKB       0.555900
      5 O           36.3730   -22.8080     7.4910 oh         1 VKB      -0.494100
      6 C11         42.0050   -25.1850    14.7180 ca         1 VKB      -0.091300
      7 C12         42.8730   -25.6550    15.7000 ca         1 VKB      -0.128000
      8 C13         43.1730   -24.8810    16.8140 ca         1 VKB      -0.127000
      9 C14         42.6040   -23.6240    16.9610 ca         1 VKB      -0.127000
     10 C15         41.7320   -23.1480    15.9890 ca         1 VKB      -0.127000
     11 C16         41.4380   -23.9220    14.8760 ca         1 VKB      -0.128000
     12 C3          39.7840   -23.8950     9.6110 cp         1 VKB      -0.166500
     13 C4          39.8120   -22.9250     8.6050 ca         1 VKB      -0.068000
     14 C5          38.6710   -22.5730     7.9060 ca         1 VKB      -0.199500
     15 C6          37.4530   -23.1810     8.2030 ca         1 VKB       0.146100
     16 C7          37.4040   -24.1380     9.2130 ca         1 VKB      -0.199500
     17 C8          38.5530   -24.4840     9.9030 ca         1 VKB      -0.068000
     18 C9          41.8910   -25.2970    12.2110 ca         1 VKB       0.263300
     19 N2          40.8410   -24.9280    11.5150 nb         1 VKB      -0.630000
     20 H1          42.4620   -23.5850     8.9250 h4         1 VKB       0.027100
     21 H2          45.1760   -24.9770    12.1130 hn         1 VKB       0.421800
     22 H3          44.2480   -25.4890    13.4250 hn         1 VKB       0.421800
     23 H4          35.5910   -23.2930     7.7800 ho         1 VKB       0.427000
     24 H5          40.6270   -26.3340    13.5440 hc         1 VKB       0.070200
     25 H6          42.2740   -26.9420    13.5240 hc         1 VKB       0.070200
     26 H7          43.3180   -26.6380    15.5940 ha         1 VKB       0.135500
     27 H8          43.8530   -25.2610    17.5660 ha         1 VKB       0.132000
     28 H9          42.8370   -23.0180    17.8270 ha         1 VKB       0.132000
     29 H10         41.2810   -22.1700    16.0970 ha         1 VKB       0.132000
     30 H11         40.7570   -23.5390    14.1240 ha         1 VKB       0.135500
     31 H12         40.7340   -22.4150     8.3590 ha         1 VKB       0.139500
     32 H13         38.7200   -21.8160     7.1330 ha         1 VKB       0.139000
     33 H14         36.4650   -24.6200     9.4630 ha         1 VKB       0.139000
     34 H15         38.4910   -25.2330    10.6810 ha         1 VKB       0.139500
     35 N           44.3090   -25.3840    12.4260 nv         1 VKB      -0.934500
     36 C10         41.6740   -26.0270    13.5060 c3         1 VKB      -0.078400
@<TRIPOS>BOND
     1     1     2 ar  
     2     1     3 ar  
     3     1    20 1   
     4     2     4 ar  
     5     3    12 1   
     6     3    19 ar  
     7     4    18 ar  
     8     4    35 1   
     9     5    15 1   
    10     5    23 1   
    11     6     7 ar  
    12     6    11 ar  
    13     6    36 1   
    14     7     8 ar  
    15     7    26 1   
    16     8     9 ar  
    17     8    27 1   
    18     9    10 ar  
    19     9    28 1   
    20    10    11 ar  
    21    10    29 1   
    22    11    30 1   
    23    12    13 ar  
    24    12    17 ar  
    25    13    14 ar  
    26    13    31 1   
    27    14    15 ar  
    28    14    32 1   
    29    15    16 ar  
    30    16    17 ar  
    31    16    33 1   
    32    17    34 1   
    33    18    19 ar  
    34    18    36 1   
    35    21    35 1   
    36    22    35 1   
    37    24    36 1   
    38    25    36 1   
@<TRIPOS>SUBSTRUCTURE
     1 VKB         1 TEMP              0 ****  ****    0 ROOT
