@<TRIPOS>MOLECULE
VKC
   15    14     1     0     0
SMALL
bcc


@<TRIPOS>ATOM
      1 C           -2.0230    -0.1340     0.0060 c          1 VKC       0.936600
      2 O           -1.8420    -1.3210     0.3160 o          1 VKC      -0.828800
      3 CA          -0.7930     0.7760    -0.1330 c3         1 VKC      -0.014600
      4 CD           2.7760     0.1490     0.3830 c3         1 VKC       0.141400
      5 CG           1.5300     0.9120     0.0090 c3         1 VKC       0.137400
      6 OAD          0.4010     0.0910     0.1410 os         1 VKC      -0.361600
      7 OE1          2.9840    -0.9050    -0.5290 oh         1 VKC      -0.572800
      8 OXT         -3.1100     0.4380    -0.2170 o          1 VKC      -0.828800
      9 HA          -0.7800     1.1970    -1.1510 h1         1 VKC      -0.003800
     10 HAA         -0.9130     1.6360     0.5440 h1         1 VKC      -0.003800
     11 HD           3.6090     0.8630     0.3790 h1         1 VKC       0.006700
     12 HDA          2.6790    -0.2180     1.4140 h1         1 VKC       0.006700
     13 HG           1.4650     1.7900     0.6690 h1         1 VKC       0.003700
     14 HGA          1.6230     1.2980    -1.0180 h1         1 VKC       0.003700
     15 HOE1         3.8020    -1.3470    -0.2880 ho         1 VKC       0.379000
@<TRIPOS>BOND
     1     1     2 1   
     2     1     3 1   
     3     1     8 1   
     4     3     6 1   
     5     3     9 1   
     6     3    10 1   
     7     4     5 1   
     8     4     7 1   
     9     4    11 1   
    10     4    12 1   
    11     5     6 1   
    12     5    13 1   
    13     5    14 1   
    14     7    15 1   
@<TRIPOS>SUBSTRUCTURE
     1 VKC         1 TEMP              0 ****  ****    0 ROOT
