@<TRIPOS>MOLECULE
VKC
   15    14     1     0     0
SMALL
No Charge or Current Charge


@<TRIPOS>ATOM
      1 C           -2.1120    -0.1250     0.0150 c          1 VKC       0.726000
      2 O           -1.9790    -1.2870     0.3850 o          1 VKC      -0.723500
      3 CA          -0.8500     0.7890    -0.1490 c3         1 VKC       0.008600
      4 CD           2.8410     0.1440     0.3770 c3         1 VKC       0.164600
      5 CG           1.5700     0.9640     0.0190 c3         1 VKC       0.160600
      6 OAD          0.4040     0.1270     0.1580 os         1 VKC      -0.408000
      7 OE1          3.1040    -0.8870    -0.5920 oh         1 VKC      -0.695000
      8 OXT         -3.2040     0.3680    -0.2380 o          1 VKC      -0.723500
      9 HA          -0.8340     1.1540    -1.1850 h1         1 VKC      -0.003800
     10 HAA         -0.9810     1.6590     0.5070 h1         1 VKC      -0.003800
     11 HD           3.6950     0.8320     0.4250 h1         1 VKC       0.006700
     12 HDA          2.7160    -0.2940     1.3760 h1         1 VKC       0.006700
     13 HG           1.5000     1.8240     0.6980 h1         1 VKC       0.003700
     14 HGA          1.6550     1.3480    -1.0060 h1         1 VKC       0.003700
     15 HOE1         3.8830    -1.3910    -0.2650 ho         1 VKC       0.478000
@<TRIPOS>BOND
     1     1     2 1   
     2     1     3 1   
     3     1     8 1   
     4     3     6 1   
     5     3     9 1   
     6     3    10 1   
     7     4     5 1   
     8     4     7 1   
     9     4    11 1   
    10     4    12 1   
    11     5     6 1   
    12     5    13 1   
    13     5    14 1   
    14     7    15 1   
@<TRIPOS>SUBSTRUCTURE
     1 VKC         1 TEMP              0 ****  ****    0 ROOT
