@<TRIPOS>MOLECULE
VKE
   26    28     1     0     0
SMALL
bcc


@<TRIPOS>ATOM
      1 C05         -1.7470     0.8530    -0.8020 c3         1 VKE      -0.179400
      2 C06         -0.8970    -0.3220    -0.5750 cc         1 VKE       0.169600
      3 C07         -1.4170    -1.5810    -0.6180 cd         1 VKE      -0.387200
      4 C08         -0.6260    -2.7580    -0.4610 c          1 VKE       0.760800
      5 C11          1.2760    -1.3500    -0.1800 ca         1 VKE       0.161100
      6 C12          2.6600    -1.3360     0.0370 ca         1 VKE      -0.182000
      7 C13          3.2340    -0.1000     0.1610 ca         1 VKE       0.061100
      8 C15          4.6150     1.6150     0.4930 c5         1 VKE       0.336200
      9 C17          2.4900     1.0740     0.0960 ca         1 VKE      -0.015900
     10 C18          1.1440     1.0680    -0.1140 ca         1 VKE       0.006000
     11 C19          0.5140    -0.1860    -0.2810 ca         1 VKE      -0.113800
     12 O01         -3.0940     0.4590     1.5230 o          1 VKE      -0.899833
     13 O03         -1.2040     2.2090     1.5080 o          1 VKE      -0.899833
     14 O04         -3.4010     2.6820     0.2630 o          1 VKE      -0.899833
     15 O09         -1.0100    -3.9090    -0.4940 o          1 VKE      -0.669500
     16 O10          0.7140    -2.5740    -0.2820 os         1 VKE      -0.372200
     17 O14          4.5290     0.1960     0.3780 os         1 VKE      -0.347900
     18 O16          3.3160     2.1340     0.2850 os         1 VKE      -0.317900
     19 P02         -2.4330     1.6310     0.8080 p5         1 VKE       1.105700
     20 H1          -1.2100     1.6310    -1.3490 hc         1 VKE       0.045200
     21 H2          -2.6110     0.5610    -1.4020 hc         1 VKE       0.045200
     22 H3          -2.4680    -1.7300    -0.8200 ha         1 VKE       0.162000
     23 H4           3.2280    -2.2530     0.1070 ha         1 VKE       0.141000
     24 H5           4.9720     1.8780     1.4920 h2         1 VKE       0.034200
     25 H6           0.5530     1.9720    -0.0900 ha         1 VKE       0.222000
     26 H9           5.3000     2.0000    -0.2660 h2         1 VKE       0.034200
@<TRIPOS>BOND
     1     1     2 1   
     2     1    19 1   
     3     1    20 1   
     4     1    21 1   
     5     2     3 2   
     6     2    11 1   
     7     3     4 1   
     8     3    22 1   
     9     4    15 2   
    10     4    16 1   
    11     5     6 ar  
    12     5    11 ar  
    13     5    16 1   
    14     6     7 ar  
    15     6    23 1   
    16     7     9 ar  
    17     7    17 1   
    18     8    17 1   
    19     8    18 1   
    20     8    24 1   
    21     8    26 1   
    22     9    10 ar  
    23     9    18 1   
    24    10    11 ar  
    25    10    25 1   
    26    12    19 1   
    27    13    19 1   
    28    14    19 1   
@<TRIPOS>SUBSTRUCTURE
     1 VKE         1 TEMP              0 ****  ****    0 ROOT
