@<TRIPOS>MOLECULE
VKE
   26    28     1     0     0
SMALL
No Charge or Current Charge


@<TRIPOS>ATOM
      1 C05         -1.8160     0.8680    -0.7430 c3         1 VKE      -0.337200
      2 C06         -0.9130    -0.3170    -0.5440 cc         1 VKE       0.169600
      3 C07         -1.3970    -1.6010    -0.6540 cd         1 VKE      -0.437200
      4 C08         -0.5930    -2.8170    -0.5130 c          1 VKE       0.685300
      5 C11          1.3150    -1.4050    -0.1610 ca         1 VKE       0.161100
      6 C12          2.7010    -1.3440     0.0780 ca         1 VKE      -0.164000
      7 C13          3.2930    -0.0850     0.1930 ca         1 VKE       0.061100
      8 C15          4.6620     1.6250     0.4880 c5         1 VKE       0.382600
      9 C17          2.5620     1.0600     0.0800 ca         1 VKE      -0.015900
     10 C18          1.1800     1.0330    -0.1580 ca         1 VKE       0.024000
     11 C19          0.5330    -0.2260    -0.2850 ca         1 VKE      -0.113800
     12 O01         -3.2310     0.6220     1.5550 o          1 VKE      -0.899833
     13 O03         -1.3680     2.2150     1.5640 o          1 VKE      -0.899833
     14 O04         -3.4200     2.7390     0.3440 o          1 VKE      -0.899833
     15 O09         -1.0820    -3.9320    -0.6170 o          1 VKE      -0.594000
     16 O10          0.7340    -2.6370    -0.2730 os         1 VKE      -0.372200
     17 O14          4.6090     0.1570     0.4140 os         1 VKE      -0.371100
     18 O16          3.3250     2.1750     0.2150 os         1 VKE      -0.341100
     19 P02         -2.4940     1.6510     0.7680 p5         1 VKE       1.263500
     20 H1          -1.3170     1.6490    -1.3240 hc         1 VKE       0.045200
     21 H2          -2.6910     0.5740    -1.3320 hc         1 VKE       0.045200
     22 H3          -2.4430    -1.7910    -0.8530 ha         1 VKE       0.212000
     23 H4           3.2930    -2.2500     0.1690 ha         1 VKE       0.123000
     24 H5           4.9740     1.9230     1.4950 h2         1 VKE       0.034200
     25 H6           0.6380     1.9700    -0.2350 ha         1 VKE       0.204000
     26 H9           5.3720     2.0040    -0.2570 h2         1 VKE       0.034200
@<TRIPOS>BOND
     1     1     2 1   
     2     1    19 1   
     3     1    20 1   
     4     1    21 1   
     5     2     3 2   
     6     2    11 1   
     7     3     4 1   
     8     3    22 1   
     9     4    15 2   
    10     4    16 1   
    11     5     6 ar  
    12     5    11 ar  
    13     5    16 1   
    14     6     7 ar  
    15     6    23 1   
    16     7     9 ar  
    17     7    17 1   
    18     8    17 1   
    19     8    18 1   
    20     8    24 1   
    21     8    26 1   
    22     9    10 ar  
    23     9    18 1   
    24    10    11 ar  
    25    10    25 1   
    26    12    19 1   
    27    13    19 1   
    28    14    19 1   
@<TRIPOS>SUBSTRUCTURE
     1 VKE         1 TEMP              0 ****  ****    0 ROOT
