@<TRIPOS>MOLECULE
VKF
   17    17     1     0     0
SMALL
No Charge or Current Charge


@<TRIPOS>ATOM
      1 C7          -3.6420    12.3810   -33.9330 c          1 VKF       0.704600
      2 O1          -3.7570    11.2080   -33.6050 o          1 VKF      -0.717000
      3 C1          -2.1690    14.1740   -35.0030 ca         1 VKF      -0.096500
      4 C5           0.0610    13.6670   -35.8580 ca         1 VKF      -0.204300
      5 C6           1.3520    14.1220   -36.5310 c3         1 VKF       0.222600
      6 C4          -0.1110    12.3260   -35.4650 ca         1 VKF      -0.103000
      7 C3          -1.3020    11.9110   -34.8450 ca         1 VKF      -0.096500
      8 C2          -2.3510    12.8290   -34.6040 ca         1 VKF      -0.106600
      9 O           -4.5230    13.2090   -33.7440 o          1 VKF      -0.717000
     10 C           -0.9770    14.5870   -35.6220 ca         1 VKF      -0.103000
     11 F            2.4250    13.9080   -35.7360 f          1 VKF      -0.141000
     12 F1           1.5740    13.4460   -37.6810 f          1 VKF      -0.141000
     13 H1          -2.9550    14.9080   -34.8330 ha         1 VKF       0.132000
     14 H2           1.3050    15.1910   -36.7640 h2         1 VKF       0.046700
     15 H3           0.6820    11.6010   -35.6400 ha         1 VKF       0.093500
     16 H4          -1.4070    10.8690   -34.5520 ha         1 VKF       0.132000
     17 H6          -0.8620    15.6280   -35.9190 ha         1 VKF       0.093500
@<TRIPOS>BOND
     1     1     2 1   
     2     1     8 1   
     3     1     9 1   
     4     3     8 ar  
     5     3    10 ar  
     6     3    13 1   
     7     4     5 1   
     8     4     6 ar  
     9     4    10 ar  
    10     5    11 1   
    11     5    12 1   
    12     5    14 1   
    13     6     7 ar  
    14     6    15 1   
    15     7     8 ar  
    16     7    16 1   
    17    10    17 1   
@<TRIPOS>SUBSTRUCTURE
     1 VKF         1 TEMP              0 ****  ****    0 ROOT
