@<TRIPOS>MOLECULE
VKF
   17    17     1     0     0
SMALL
abcg2


@<TRIPOS>ATOM
      1 C7          -3.6230    12.3830   -33.9410 c          1 VKF       0.704600
      2 O1          -3.7530    11.1490   -33.7470 o          1 VKF      -0.717000
      3 C1          -2.1600    14.1660   -35.0140 ca         1 VKF      -0.096500
      4 C5           0.0440    13.6700   -35.8510 ca         1 VKF      -0.204300
      5 C6           1.3040    14.1250   -36.5110 c3         1 VKF       0.222600
      6 C4          -0.1110    12.3410   -35.4550 ca         1 VKF      -0.103000
      7 C3          -1.2900    11.9340   -34.8500 ca         1 VKF      -0.096500
      8 C2          -2.3290    12.8410   -34.6180 ca         1 VKF      -0.106600
      9 O           -4.4490    13.2780   -33.6320 o          1 VKF      -0.717000
     10 C           -0.9850    14.5800   -35.6310 ca         1 VKF      -0.103000
     11 F            2.4010    13.9070   -35.6990 f          1 VKF      -0.141000
     12 F1           1.5570    13.3930   -37.6570 f          1 VKF      -0.141000
     13 H1          -2.9610    14.8700   -34.8350 ha         1 VKF       0.132000
     14 H2           1.2980    15.1800   -36.7850 h2         1 VKF       0.046700
     15 H3           0.6890    11.6300   -35.6220 ha         1 VKF       0.093500
     16 H4          -1.4230    10.9060   -34.5450 ha         1 VKF       0.132000
     17 H6          -0.8660    15.6120   -35.9400 ha         1 VKF       0.093500
@<TRIPOS>BOND
     1     1     2 1   
     2     1     8 1   
     3     1     9 1   
     4     3     8 ar  
     5     3    10 ar  
     6     3    13 1   
     7     4     5 1   
     8     4     6 ar  
     9     4    10 ar  
    10     5    11 1   
    11     5    12 1   
    12     5    14 1   
    13     6     7 ar  
    14     6    15 1   
    15     7     8 ar  
    16     7    16 1   
    17    10    17 1   
@<TRIPOS>SUBSTRUCTURE
     1 VKF         1 TEMP              0 ****  ****    0 ROOT
