@<TRIPOS>MOLECULE
VKG
   63    67     1     0     0
SMALL
abcg2


@<TRIPOS>ATOM
      1 C01        -22.6070    48.2540     7.2480 c3         1 VKG       0.185100
      2 C07        -19.3020    46.3620     8.4920 ca         1 VKG       0.320000
      3 C08        -20.0230    46.0270     9.6370 ca         1 VKG      -0.136000
      4 C09        -19.6910    44.8790    10.3390 ca         1 VKG      -0.071000
      5 C10        -18.6680    44.0440     9.9140 ca         1 VKG      -0.136000
      6 C11        -17.9590    44.3880     8.7750 ca         1 VKG       0.079600
      7 C13        -17.1400    42.8410     7.1580 c          1 VKG       0.624000
      8 C16        -16.3110    41.2880     5.5210 cx         1 VKG       0.045700
      9 C17        -15.0720    41.2000     4.6940 cx         1 VKG      -0.119400
     10 C18        -16.1400    42.1830     4.3380 cx         1 VKG      -0.119400
     11 C19        -15.4510    41.1930     7.7910 c          1 VKG       0.618200
     12 C21        -15.3670    41.8530     9.0810 cc         1 VKG      -0.375200
     13 C22        -14.5920    41.3470    10.1170 cd         1 VKG       0.404600
     14 C24        -14.9600    38.9460     9.8390 ca         1 VKG       0.281000
     15 C25        -16.3320    38.8910    10.0440 ca         1 VKG      -0.119000
     16 C26        -17.0620    37.7670     9.6890 ca         1 VKG      -0.072000
     17 C27        -16.4060    36.6700     9.1500 ca         1 VKG       0.203000
     18 C29        -15.0310    36.6850     8.9590 ca         1 VKG      -0.099000
     19 C30        -14.3400    37.8270     9.2990 ca         1 VKG       0.166000
     20 C34        -14.4650    43.5410    11.1350 c          1 VKG       0.580200
     21 C36        -15.3840    44.0450    10.1460 cd         1 VKG      -0.272400
     22 C37        -15.6880    45.5100    10.2290 c3         1 VKG      -0.023900
     23 C38        -15.8760    43.1790     9.2100 cc         1 VKG       0.205600
     24 C39        -18.2640    45.5380     8.0680 ca         1 VKG      -0.131000
     25 F31        -13.0160    37.8680     9.1050 f          1 VKG      -0.169000
     26 I28        -17.4970    34.9570     8.6210 i          1 VKG      -0.291000
     27 N02        -21.8130    48.4800     8.4480 n7         1 VKG      -0.895300
     28 N06        -19.5920    47.4860     7.7080 nu         1 VKG      -0.925100
     29 N12        -16.9000    43.5360     8.3280 n          1 VKG      -0.244200
     30 N15        -16.2260    41.8570     6.8400 n          1 VKG      -0.353400
     31 N32        -14.2150    42.1590    11.1360 n          1 VKG      -0.310000
     32 O04        -19.7580    49.2270     9.5950 o          1 VKG      -0.553500
     33 O05        -20.0210    49.8360     7.1800 o          1 VKG      -0.553500
     34 O14        -18.0820    43.0970     6.4450 o          1 VKG      -0.530000
     35 O20        -14.8660    40.1750     7.4830 o          1 VKG      -0.525000
     36 O35        -13.9460    44.2380    11.9950 o          1 VKG      -0.535000
     37 S03        -20.2390    48.8990     8.2670 s6         1 VKG       1.286200
     38 H1         -23.5770    47.8790     7.5610 h1         1 VKG       0.052700
     39 H2         -22.7530    49.1550     6.6510 h1         1 VKG       0.052700
     40 H3         -22.1360    47.4890     6.6330 h1         1 VKG       0.052700
     41 H4         -20.8460    46.6350     9.9820 ha         1 VKG       0.133000
     42 H5         -20.2540    44.6230    11.2270 ha         1 VKG       0.121000
     43 H6         -18.4280    43.1430    10.4630 ha         1 VKG       0.124000
     44 H7         -17.0260    40.4780     5.4320 h1         1 VKG       0.092700
     45 H8         -14.9480    40.3120     4.0880 hc         1 VKG       0.080450
     46 H9         -14.1520    41.5910     5.1080 hc         1 VKG       0.080450
     47 H10        -15.9320    43.2310     4.5130 hc         1 VKG       0.080450
     48 H11        -16.7720    41.9910     3.4820 hc         1 VKG       0.080450
     49 H12        -16.8450    39.7350    10.4850 ha         1 VKG       0.128000
     50 H13        -18.1300    37.7580     9.8540 ha         1 VKG       0.135000
     51 H14        -14.4970    35.8440     8.5400 ha         1 VKG       0.149000
     52 H15        -13.5550    42.3140    13.1040 h1         1 VKG       0.063367
     53 H16        -13.9890    40.6800    12.6040 h1         1 VKG       0.063367
     54 H17        -12.4600    41.4140    12.0620 h1         1 VKG       0.063367
     55 H18        -14.8130    46.0420    10.5970 hc         1 VKG       0.050033
     56 H19        -15.9370    45.9320     9.2610 hc         1 VKG       0.050033
     57 H20        -16.5120    45.7330    10.9110 hc         1 VKG       0.050033
     58 H21        -17.6830    45.8090     7.1950 ha         1 VKG       0.131000
     59 H22        -22.2640    49.0620     9.1450 hn         1 VKG       0.488000
     60 H23        -19.0060    47.6230     6.8940 hn         1 VKG       0.512000
     61 H24        -13.3180    39.8620    10.6670 hn         1 VKG       0.516000
     62 N23        -14.1890    40.0540    10.1950 nu         1 VKG      -0.847000
     63 C33        -13.5100    41.6040    12.2880 c3         1 VKG       0.054300
@<TRIPOS>BOND
     1     1    27 1   
     2     1    38 1   
     3     1    39 1   
     4     1    40 1   
     5     2     3 ar  
     6     2    24 ar  
     7     2    28 1   
     8     3     4 ar  
     9     3    41 1   
    10     4     5 ar  
    11     4    42 1   
    12     5     6 ar  
    13     5    43 1   
    14     6    24 ar  
    15     6    29 1   
    16     7    29 1   
    17     7    30 1   
    18     7    34 2   
    19     8     9 1   
    20     8    10 1   
    21     8    30 1   
    22     8    44 1   
    23     9    10 1   
    24     9    45 1   
    25     9    46 1   
    26    10    47 1   
    27    10    48 1   
    28    11    12 1   
    29    11    30 1   
    30    11    35 2   
    31    12    13 2   
    32    12    23 1   
    33    13    31 1   
    34    13    62 1   
    35    14    15 ar  
    36    14    19 ar  
    37    14    62 1   
    38    15    16 ar  
    39    15    49 1   
    40    16    17 ar  
    41    16    50 1   
    42    17    18 ar  
    43    17    26 1   
    44    18    19 ar  
    45    18    51 1   
    46    19    25 1   
    47    20    21 1   
    48    20    31 1   
    49    20    36 2   
    50    21    22 1   
    51    21    23 2   
    52    22    55 1   
    53    22    56 1   
    54    22    57 1   
    55    23    29 1   
    56    24    58 1   
    57    27    37 1   
    58    27    59 1   
    59    28    37 1   
    60    28    60 1   
    61    31    63 1   
    62    32    37 2   
    63    33    37 2   
    64    52    63 1   
    65    53    63 1   
    66    54    63 1   
    67    61    62 1   
@<TRIPOS>SUBSTRUCTURE
     1 VKG         1 TEMP              0 ****  ****    0 ROOT
