@<TRIPOS>MOLECULE
VKG
   63    67     1     0     0
SMALL
No Charge or Current Charge


@<TRIPOS>ATOM
      1 C01        -22.7260    48.1240     7.7540 c3         1 VKG       0.185100
      2 C07        -19.4650    46.4430     8.4490 ca         1 VKG       0.320000
      3 C08        -20.1080    46.0420     9.6340 ca         1 VKG      -0.136000
      4 C09        -19.6780    44.8970    10.3200 ca         1 VKG      -0.071000
      5 C10        -18.6170    44.1320     9.8110 ca         1 VKG      -0.136000
      6 C11        -18.0000    44.4790     8.5890 ca         1 VKG       0.079600
      7 C13        -16.8880    43.2110     6.8200 c          1 VKG       0.624000
      8 C16        -16.1940    41.5220     5.1620 cx         1 VKG       0.045700
      9 C17        -14.9390    41.1630     4.3930 cx         1 VKG      -0.119400
     10 C18        -15.7720    42.3400     3.9600 cx         1 VKG      -0.119400
     11 C19        -15.5510    41.2790     7.5350 c          1 VKG       0.618200
     12 C21        -15.4140    41.9320     8.8670 cc         1 VKG      -0.375200
     13 C22        -14.6980    41.3590     9.9070 cd         1 VKG       0.404600
     14 C24        -14.9140    38.8370     9.8400 ca         1 VKG       0.281000
     15 C25        -16.3220    38.7940     9.8860 ca         1 VKG      -0.119000
     16 C26        -16.9990    37.5600     9.8370 ca         1 VKG      -0.072000
     17 C27        -16.2720    36.3620     9.7480 ca         1 VKG       0.203000
     18 C29        -14.8710    36.3890     9.7110 ca         1 VKG      -0.099000
     19 C30        -14.1950    37.6190     9.7590 ca         1 VKG       0.166000
     20 C34        -14.6680    43.4050    11.2120 c          1 VKG       0.580200
     21 C36        -15.4890    44.0120    10.1360 cd         1 VKG      -0.272400
     22 C37        -15.7410    45.5080    10.3070 c3         1 VKG      -0.023900
     23 C38        -15.9520    43.2420     9.0780 cc         1 VKG       0.205600
     24 C39        -18.4150    45.6630     7.9390 ca         1 VKG      -0.131000
     25 F31        -12.8400    37.6270     9.7280 f          1 VKG      -0.169000
     26 I28        -17.3170    34.4680     9.6730 i          1 VKG      -0.291000
     27 N02        -21.8820    48.8810     8.6980 n7         1 VKG      -0.895300
     28 N06        -19.8580    47.5800     7.7540 nu         1 VKG      -0.925100
     29 N12        -16.8390    43.7470     8.1210 n          1 VKG      -0.244200
     30 N15        -16.1750    42.0430     6.5430 n          1 VKG      -0.353400
     31 N32        -14.3810    42.0370    11.0790 n          1 VKG      -0.310000
     32 O04        -19.5770    49.1490     9.6760 o          1 VKG      -0.553500
     33 O05        -20.1110    50.0070     7.3260 o          1 VKG      -0.553500
     34 O14        -17.5950    43.7150     5.9560 o          1 VKG      -0.530000
     35 O20        -15.1110    40.1740     7.2520 o          1 VKG      -0.525000
     36 O35        -14.2770    44.0520    12.1770 o          1 VKG      -0.535000
     37 S03        -20.2700    49.0310     8.3970 s6         1 VKG       1.286200
     38 H1         -23.7860    48.2050     8.0320 h1         1 VKG       0.052700
     39 H2         -22.6170    48.5020     6.7280 h1         1 VKG       0.052700
     40 H3         -22.4670    47.0560     7.7530 h1         1 VKG       0.052700
     41 H4         -20.9350    46.6220    10.0320 ha         1 VKG       0.133000
     42 H5         -20.1650    44.6030    11.2480 ha         1 VKG       0.121000
     43 H6         -18.2910    43.2520    10.3600 ha         1 VKG       0.124000
     44 H7         -17.0620    40.8690     5.0560 h1         1 VKG       0.092700
     45 H8         -14.9660    40.2660     3.7800 hc         1 VKG       0.080450
     46 H9         -13.9790    41.3680     4.8590 hc         1 VKG       0.080450
     47 H10        -15.3670    43.3340     4.1340 hc         1 VKG       0.080450
     48 H11        -16.3620    42.2410     3.0520 hc         1 VKG       0.080450
     49 H12        -16.8950    39.7130     9.9590 ha         1 VKG       0.128000
     50 H13        -18.0850    37.5320     9.8690 ha         1 VKG       0.135000
     51 H14        -14.3100    35.4610     9.6470 ha         1 VKG       0.149000
     52 H15        -13.7950    41.9280    13.1550 h1         1 VKG       0.063367
     53 H16        -14.1200    40.3680    12.4020 h1         1 VKG       0.063367
     54 H17        -12.6180    41.2560    11.9970 h1         1 VKG       0.063367
     55 H18        -14.8700    46.0280    10.7250 hc         1 VKG       0.050033
     56 H19        -15.9440    46.0040     9.3520 hc         1 VKG       0.050033
     57 H20        -16.5890    45.6970    10.9770 hc         1 VKG       0.050033
     58 H21        -17.9050    45.9890     7.0390 ha         1 VKG       0.131000
     59 H22        -22.1430    49.8650     8.6660 hn         1 VKG       0.488000
     60 H23        -19.2770    47.8480     6.9740 hn         1 VKG       0.512000
     61 H24        -13.2360    39.9990    10.0280 hn         1 VKG       0.516000
     62 N23        -14.2430    40.0710     9.8910 nu         1 VKG      -0.847000
     63 C33        -13.6870    41.3610    12.2220 c3         1 VKG       0.054300
@<TRIPOS>BOND
     1     1    27 1   
     2     1    38 1   
     3     1    39 1   
     4     1    40 1   
     5     2     3 ar  
     6     2    24 ar  
     7     2    28 1   
     8     3     4 ar  
     9     3    41 1   
    10     4     5 ar  
    11     4    42 1   
    12     5     6 ar  
    13     5    43 1   
    14     6    24 ar  
    15     6    29 1   
    16     7    29 1   
    17     7    30 1   
    18     7    34 2   
    19     8     9 1   
    20     8    10 1   
    21     8    30 1   
    22     8    44 1   
    23     9    10 1   
    24     9    45 1   
    25     9    46 1   
    26    10    47 1   
    27    10    48 1   
    28    11    12 1   
    29    11    30 1   
    30    11    35 2   
    31    12    13 2   
    32    12    23 1   
    33    13    31 1   
    34    13    62 1   
    35    14    15 ar  
    36    14    19 ar  
    37    14    62 1   
    38    15    16 ar  
    39    15    49 1   
    40    16    17 ar  
    41    16    50 1   
    42    17    18 ar  
    43    17    26 1   
    44    18    19 ar  
    45    18    51 1   
    46    19    25 1   
    47    20    21 1   
    48    20    31 1   
    49    20    36 2   
    50    21    22 1   
    51    21    23 2   
    52    22    55 1   
    53    22    56 1   
    54    22    57 1   
    55    23    29 1   
    56    24    58 1   
    57    27    37 1   
    58    27    59 1   
    59    28    37 1   
    60    28    60 1   
    61    31    63 1   
    62    32    37 2   
    63    33    37 2   
    64    52    63 1   
    65    53    63 1   
    66    54    63 1   
    67    61    62 1   
@<TRIPOS>SUBSTRUCTURE
     1 VKG         1 TEMP              0 ****  ****    0 ROOT
