@<TRIPOS>MOLECULE
VKH
   28    28     1     0     0
SMALL
No Charge or Current Charge


@<TRIPOS>ATOM
      1 N1         -19.2380    59.6270    50.2560 nz         1 VKH      -1.002000
      2 C2         -19.9390    57.5080    48.2020 c6         1 VKH       0.114300
      3 C4         -19.2940    59.7920    47.1840 c6         1 VKH       0.191300
      4 C5         -18.0180    59.8430    48.0820 c6         1 VKH      -0.132700
      5 C6         -17.5480    61.3030    48.3860 c3         1 VKH       0.147600
      6 O2         -21.0710    58.0110    48.9430 oh         1 VKH      -0.731000
      7 C7         -18.1790    58.9950    49.3800 c6         1 VKH       0.133300
      8 O6         -18.5170    62.0570    49.1420 oh         1 VKH      -0.713000
      9 O4         -19.0600    60.4780    45.9430 oh         1 VKH      -0.685000
     10 C3         -19.7220    58.3170    46.8840 c6         1 VKH       0.181300
     11 O3         -20.9180    58.2980    46.0770 oh         1 VKH      -0.612000
     12 C1         -18.6520    57.5540    49.0740 c6         1 VKH      -0.142400
     13 H1         -19.1350    59.4180    51.2580 hn         1 VKH       0.521333
     14 H4         -20.1170    56.4560    47.9290 h1         1 VKH       0.074700
     15 H5         -20.1180    60.2820    47.7250 h1         1 VKH       0.062700
     16 H6         -17.1950    59.3970    47.5070 hc         1 VKH       0.108700
     17 H7         -16.5980    61.2500    48.9370 h1         1 VKH       0.060700
     18 H8         -17.3340    61.8060    47.4330 h1         1 VKH       0.060700
     19 H9         -21.8390    57.9850    48.3190 ho         1 VKH       0.521000
     20 H10        -17.2460    58.9960    49.9610 hx         1 VKH       0.094700
     21 H11        -18.2310    63.0010    49.1130 ho         1 VKH       0.487000
     22 H12        -19.8290    60.2440    45.3710 ho         1 VKH       0.524000
     23 H13        -18.8990    57.8380    46.3310 h1         1 VKH       0.056700
     24 H14        -20.9660    57.4130    45.6500 ho         1 VKH       0.460000
     25 H15        -18.8150    57.0050    50.0110 hc         1 VKH       0.087700
     26 H2         -19.2290    60.6590    50.1420 hn         1 VKH       0.521333
     27 H16        -17.8450    57.0190    48.5540 hc         1 VKH       0.087700
     28 H3         -20.1760    59.2850    49.9730 hn         1 VKH       0.521333
@<TRIPOS>BOND
     1     1     7 1   
     2     1    13 1   
     3     1    26 1   
     4     1    28 1   
     5     2     6 1   
     6     2    10 1   
     7     2    12 1   
     8     2    14 1   
     9     3     4 1   
    10     3     9 1   
    11     3    10 1   
    12     3    15 1   
    13     4     5 1   
    14     4     7 1   
    15     4    16 1   
    16     5     8 1   
    17     5    17 1   
    18     5    18 1   
    19     6    19 1   
    20     7    12 1   
    21     7    20 1   
    22     8    21 1   
    23     9    22 1   
    24    10    11 1   
    25    10    23 1   
    26    11    24 1   
    27    12    25 1   
    28    12    27 1   
@<TRIPOS>SUBSTRUCTURE
     1 VKH         1 TEMP              0 ****  ****    0 ROOT
