@<TRIPOS>MOLECULE
VKH
   28    28     1     0     0
SMALL
abcg2


@<TRIPOS>ATOM
      1 N1         -19.3360    59.6700    50.2110 nz         1 VKH      -1.002000
      2 C2         -19.9520    57.5260    48.1020 c6         1 VKH       0.114300
      3 C4         -19.3040    59.7530    47.0920 c6         1 VKH       0.191300
      4 C5         -18.0950    59.8100    48.0450 c6         1 VKH      -0.132700
      5 C6         -17.5970    61.2240    48.3090 c3         1 VKH       0.147600
      6 O2         -21.1040    58.0890    48.7170 oh         1 VKH      -0.731000
      7 C7         -18.3150    59.0090    49.3300 c6         1 VKH       0.133300
      8 O6         -18.6260    61.9750    48.9350 oh         1 VKH      -0.713000
      9 O4         -18.9860    60.3600    45.8620 oh         1 VKH      -0.685000
     10 C3         -19.6720    58.2980    46.8110 c6         1 VKH       0.181300
     11 O3         -20.7690    58.2860    45.9380 oh         1 VKH      -0.612000
     12 C1         -18.7430    57.5800    49.0310 c6         1 VKH      -0.142400
     13 H1         -19.2420    59.3670    51.1800 hn         1 VKH       0.521333
     14 H4         -20.1450    56.4790    47.8380 h1         1 VKH       0.074700
     15 H5         -20.1700    60.2530    47.5460 h1         1 VKH       0.062700
     16 H6         -17.2660    59.3010    47.5390 hc         1 VKH       0.108700
     17 H7         -16.7030    61.1710    48.9420 h1         1 VKH       0.060700
     18 H8         -17.2910    61.6860    47.3660 h1         1 VKH       0.060700
     19 H9         -21.4670    57.4450    49.3350 ho         1 VKH       0.521000
     20 H10        -17.3890    59.0080    49.9060 hx         1 VKH       0.094700
     21 H11        -18.2710    62.8250    49.2140 ho         1 VKH       0.487000
     22 H12        -19.1890    61.2980    45.9160 ho         1 VKH       0.524000
     23 H13        -18.7930    57.8190    46.3500 h1         1 VKH       0.056700
     24 H14        -20.9370    57.3770    45.6700 ho         1 VKH       0.460000
     25 H15        -18.9500    57.0380    49.9580 hc         1 VKH       0.087700
     26 H2         -19.2320    60.6940    50.1670 hn         1 VKH       0.521333
     27 H16        -17.9000    57.0720    48.5580 hc         1 VKH       0.087700
     28 H3         -20.2830    59.4220    49.8990 hn         1 VKH       0.521333
@<TRIPOS>BOND
     1     1     7 1   
     2     1    13 1   
     3     1    26 1   
     4     1    28 1   
     5     2     6 1   
     6     2    10 1   
     7     2    12 1   
     8     2    14 1   
     9     3     4 1   
    10     3     9 1   
    11     3    10 1   
    12     3    15 1   
    13     4     5 1   
    14     4     7 1   
    15     4    16 1   
    16     5     8 1   
    17     5    17 1   
    18     5    18 1   
    19     6    19 1   
    20     7    12 1   
    21     7    20 1   
    22     8    21 1   
    23     9    22 1   
    24    10    11 1   
    25    10    23 1   
    26    11    24 1   
    27    12    25 1   
    28    12    27 1   
@<TRIPOS>SUBSTRUCTURE
     1 VKH         1 TEMP              0 ****  ****    0 ROOT
