@<TRIPOS>MOLECULE
VKK
   41    42     1     0     0
SMALL
abcg2


@<TRIPOS>ATOM
      1 O5          33.1930    21.5320    28.1900 os         1 VKK      -0.449000
      2 C5          32.2230    20.9480    27.3370 c6         1 VKK       0.147300
      3 C4          32.6610    21.0920    25.8700 c6         1 VKK       0.148300
      4 O4          31.6760    20.5910    25.0020 oh         1 VKK      -0.704000
      5 C3          32.8720    22.5660    25.5550 c6         1 VKK       0.177300
      6 O3          33.3750    22.6790    24.2500 oh         1 VKK      -0.643000
      7 C2          33.8300    23.1820    26.5710 c6         1 VKK       0.101300
      8 O2          33.8980    24.5610    26.3100 oh         1 VKK      -0.721000
      9 C1          33.3160    22.9030    27.9790 c6         1 VKK       0.369300
     10 C8          37.8390    26.3790    34.7020 ca         1 VKK       0.161100
     11 C11         35.9380    25.2130    32.9960 ca         1 VKK      -0.123800
     12 C6          37.2240    25.5290    32.5380 ca         1 VKK      -0.040500
     13 C12         34.9160    24.6170    32.1540 ce         1 VKK      -0.056200
     14 C15         32.0030    19.5170    27.7740 c3         1 VKK       0.165600
     15 O6          33.1690    18.7650    27.5480 oh         1 VKK      -0.713000
     16 O1          34.2790    23.3850    28.8780 os         1 VKK      -0.446100
     17 C13         35.0440    24.2530    30.8700 cf         1 VKK      -0.290200
     18 C7          38.1600    26.1020    33.3700 ca         1 VKK      -0.185000
     19 C9          36.5660    26.0710    35.1780 ca         1 VKK      -0.185000
     20 C10         35.6350    25.4990    34.3300 ca         1 VKK      -0.040500
     21 O7          32.7990    23.5000    30.5660 o          1 VKK      -0.476000
     22 H1          31.2580    21.4660    27.4590 h1         1 VKK       0.053700
     23 H2          33.6180    20.5700    25.7320 h1         1 VKK       0.073700
     24 H3          31.7910    19.6400    24.9180 ho         1 VKK       0.511000
     25 H4          31.9000    23.0790    25.6480 h1         1 VKK       0.052700
     26 H5          33.5080    23.6150    24.0620 ho         1 VKK       0.458000
     27 H6          34.8120    22.7000    26.4590 h1         1 VKK       0.069700
     28 H7          34.7000    24.9160    26.7040 ho         1 VKK       0.521000
     29 H8          32.3520    23.4120    28.1350 h2         1 VKK       0.061700
     30 H9          37.5040    25.3310    31.5110 ha         1 VKK       0.117500
     31 H10         33.9550    24.4580    32.6340 ha         1 VKK       0.191000
     32 H11         31.1420    19.1240    27.2190 h1         1 VKK       0.034700
     33 H12         31.7150    19.5210    28.8340 h1         1 VKK       0.034700
     34 H13         32.9900    17.8510    27.7880 ho         1 VKK       0.505000
     35 H14         35.9720    24.3740    30.3260 ha         1 VKK       0.198000
     36 H15         39.1480    26.3420    32.9970 ha         1 VKK       0.125000
     37 H16         36.3020    26.2800    36.2090 ha         1 VKK       0.125000
     38 H17         34.6490    25.2680    34.7150 ha         1 VKK       0.117500
     39 H18         38.4650    27.0920    36.3590 ho         1 VKK       0.470000
     40 C14         33.9120    23.6830    30.1380 c          1 VKK       0.611300
     41 O8          38.7890    26.9390    35.4630 oh         1 VKK      -0.526100
@<TRIPOS>BOND
     1     1     2 1   
     2     1     9 1   
     3     2     3 1   
     4     2    14 1   
     5     2    22 1   
     6     3     4 1   
     7     3     5 1   
     8     3    23 1   
     9     4    24 1   
    10     5     6 1   
    11     5     7 1   
    12     5    25 1   
    13     6    26 1   
    14     7     8 1   
    15     7     9 1   
    16     7    27 1   
    17     8    28 1   
    18     9    16 1   
    19     9    29 1   
    20    10    18 ar  
    21    10    19 ar  
    22    10    41 1   
    23    11    12 ar  
    24    11    13 1   
    25    11    20 ar  
    26    12    18 ar  
    27    12    30 1   
    28    13    17 2   
    29    13    31 1   
    30    14    15 1   
    31    14    32 1   
    32    14    33 1   
    33    15    34 1   
    34    16    40 1   
    35    17    35 1   
    36    17    40 1   
    37    18    36 1   
    38    19    20 ar  
    39    19    37 1   
    40    20    38 1   
    41    21    40 2   
    42    39    41 1   
@<TRIPOS>SUBSTRUCTURE
     1 VKK         1 TEMP              0 ****  ****    0 ROOT
