@<TRIPOS>MOLECULE
VKK
   41    42     1     0     0
SMALL
No Charge or Current Charge


@<TRIPOS>ATOM
      1 O5          33.1610    21.5900    28.1810 os         1 VKK      -0.449000
      2 C5          32.1750    20.8870    27.3770 c6         1 VKK       0.147300
      3 C4          32.5650    20.9550    25.8630 c6         1 VKK       0.148300
      4 O4          31.5620    20.3510    25.0200 oh         1 VKK      -0.704000
      5 C3          32.7820    22.4420    25.4450 c6         1 VKK       0.177300
      6 O3          33.2330    22.5290    24.0820 oh         1 VKK      -0.643000
      7 C2          33.8080    23.1280    26.3890 c6         1 VKK       0.101300
      8 O2          34.0200    24.5090    26.0000 oh         1 VKK      -0.721000
      9 C1          33.2920    22.9880    27.8580 c6         1 VKK       0.369300
     10 C8          37.9160    26.3370    34.7940 ca         1 VKK       0.161100
     11 C11         35.9590    25.2690    33.0590 ca         1 VKK      -0.123800
     12 C6          37.2620    25.5410    32.5880 ca         1 VKK      -0.040500
     13 C12         34.9030    24.7050    32.1670 ce         1 VKK      -0.056200
     14 C15         32.0700    19.4190    27.9110 c3         1 VKK       0.165600
     15 O6          33.3270    18.7090    27.9180 oh         1 VKK      -0.713000
     16 O1          34.2210    23.5940    28.7650 os         1 VKK      -0.446100
     17 C13         34.9820    24.3750    30.8440 cf         1 VKK      -0.290200
     18 C7          38.2340    26.0730    33.4550 ca         1 VKK      -0.185000
     19 C9          36.6250    26.0700    35.2720 ca         1 VKK      -0.185000
     20 C10         35.6510    25.5390    34.4090 ca         1 VKK      -0.040500
     21 O7          32.7410    23.6010    30.5180 o          1 VKK      -0.476000
     22 H1          31.1970    21.3700    27.5200 h1         1 VKK       0.053700
     23 H2          33.5230    20.4260    25.7390 h1         1 VKK       0.073700
     24 H3          31.7740    20.6570    24.1050 ho         1 VKK       0.511000
     25 H4          31.8230    22.9710    25.5490 h1         1 VKK       0.052700
     26 H5          33.6380    23.4250    24.0140 ho         1 VKK       0.458000
     27 H6          34.7570    22.5750    26.3230 h1         1 VKK       0.069700
     28 H7          34.5880    24.9160    26.6990 ho         1 VKK       0.521000
     29 H8          32.3150    23.4870    27.9470 h2         1 VKK       0.061700
     30 H9          37.5340    25.3450    31.5550 ha         1 VKK       0.117500
     31 H10         33.9450    24.5430    32.6680 ha         1 VKK       0.191000
     32 H11         31.3330    18.8790    27.3000 h1         1 VKK       0.034700
     33 H12         31.6640    19.4660    28.9300 h1         1 VKK       0.034700
     34 H13         33.1600    17.8320    28.3360 ho         1 VKK       0.505000
     35 H14         35.9100    24.5140    30.2960 ha         1 VKK       0.198000
     36 H15         39.2340    26.2790    33.0850 ha         1 VKK       0.125000
     37 H16         36.3680    26.2710    36.3100 ha         1 VKK       0.125000
     38 H17         34.6530    25.3370    34.7940 ha         1 VKK       0.117500
     39 H18         38.4700    26.9700    36.5120 ho         1 VKK       0.470000
     40 C14         33.8540    23.8170    30.0600 c          1 VKK       0.611300
     41 O8          38.8670    26.8510    35.6230 oh         1 VKK      -0.526100
@<TRIPOS>BOND
     1     1     2 1   
     2     1     9 1   
     3     2     3 1   
     4     2    14 1   
     5     2    22 1   
     6     3     4 1   
     7     3     5 1   
     8     3    23 1   
     9     4    24 1   
    10     5     6 1   
    11     5     7 1   
    12     5    25 1   
    13     6    26 1   
    14     7     8 1   
    15     7     9 1   
    16     7    27 1   
    17     8    28 1   
    18     9    16 1   
    19     9    29 1   
    20    10    18 ar  
    21    10    19 ar  
    22    10    41 1   
    23    11    12 ar  
    24    11    13 1   
    25    11    20 ar  
    26    12    18 ar  
    27    12    30 1   
    28    13    17 2   
    29    13    31 1   
    30    14    15 1   
    31    14    32 1   
    32    14    33 1   
    33    15    34 1   
    34    16    40 1   
    35    17    35 1   
    36    17    40 1   
    37    18    36 1   
    38    19    20 ar  
    39    19    37 1   
    40    20    38 1   
    41    21    40 2   
    42    39    41 1   
@<TRIPOS>SUBSTRUCTURE
     1 VKK         1 TEMP              0 ****  ****    0 ROOT
