@<TRIPOS>MOLECULE
VKL
   30    32     1     0     0
SMALL
No Charge or Current Charge


@<TRIPOS>ATOM
      1 C           34.5710    -6.9800    -4.3130 c3         1 VKL       0.040900
      2 C4          37.9550    -5.8770    -3.4160 cc         1 VKL       0.383500
      3 C5          35.9030    -4.9410    -4.8820 cz         1 VKL       0.071000
      4 C6          35.0990    -2.7490    -5.4980 c5         1 VKL       0.048600
      5 N1          35.7820    -6.1470    -4.2300 na         1 VKL       0.185800
      6 C7          36.4710    -2.6960    -4.7190 c5         1 VKL       0.026600
      7 C8          37.9730    -4.5350    -3.7640 cd         1 VKL       0.104000
      8 N2          34.9270    -4.2310    -5.4580 nu         1 VKL      -0.339000
      9 C11         39.0160    -7.3920    -1.7230 ca         1 VKL      -0.068000
     10 C10         40.1510    -7.9340    -1.0960 ca         1 VKL       0.155000
     11 N3          36.8080    -4.0770    -4.3810 na         1 VKL       0.047000
     12 N           36.8530    -6.7010    -3.5570 nc         1 VKL      -0.350800
     13 C9          41.4360    -7.5130    -1.4790 ca         1 VKL       0.242000
     14 C1          41.5860    -6.5580    -2.4950 ca         1 VKL      -0.120000
     15 C2          40.4530    -6.0120    -3.1260 ca         1 VKL      -0.052000
     16 C3          39.1500    -6.4030    -2.7310 ca         1 VKL      -0.227500
     17 F1          39.9980    -8.8650    -0.1270 f          1 VKL      -0.111000
     18 H1          34.6920    -7.8850    -3.7050 h1         1 VKL       0.120033
     19 H3          33.7080    -6.4180    -3.9370 h1         1 VKL       0.120033
     20 H2          34.3950    -7.2740    -5.3540 h1         1 VKL       0.120033
     21 H4          34.2980    -2.2090    -4.9730 h1         1 VKL       0.141700
     22 H5          35.1820    -2.3530    -6.5210 h1         1 VKL       0.141700
     23 H6          37.2610    -2.2510    -5.3390 h1         1 VKL       0.143700
     24 H7          36.3860    -2.0910    -3.8060 h1         1 VKL       0.143700
     25 H8          38.7700    -3.8350    -3.5610 h4         1 VKL       0.235000
     26 H9          34.1160    -4.6840    -5.8870 hn         1 VKL       0.438000
     27 H10         38.0330    -7.7390    -1.4090 ha         1 VKL       0.157000
     28 H15         40.6030    -5.2940    -3.9310 ha         1 VKL       0.119000
     29 H11         42.5840    -6.2490    -2.7980 ha         1 VKL       0.178000
     30 F           42.5310    -8.0350    -0.8810 f          1 VKL      -0.095000
@<TRIPOS>BOND
     1     1     5 1   
     2     1    18 1   
     3     1    19 1   
     4     1    20 1   
     5     2     7 2   
     6     2    12 1   
     7     2    16 1   
     8     3     5 1   
     9     3     8 2   
    10     3    11 1   
    11     4     6 1   
    12     4     8 1   
    13     4    21 1   
    14     4    22 1   
    15     5    12 2   
    16     6    11 1   
    17     6    23 1   
    18     6    24 1   
    19     7    11 1   
    20     7    25 1   
    21     8    26 1   
    22     9    10 ar  
    23     9    16 ar  
    24     9    27 1   
    25    10    13 ar  
    26    10    17 1   
    27    13    14 ar  
    28    13    30 1   
    29    14    15 ar  
    30    14    29 1   
    31    15    16 ar  
    32    15    28 1   
@<TRIPOS>SUBSTRUCTURE
     1 VKL         1 TEMP              0 ****  ****    0 ROOT
