@<TRIPOS>MOLECULE
VKL
   30    32     1     0     0
SMALL
abcg2


@<TRIPOS>ATOM
      1 C           34.6850    -6.9880    -4.2270 c3         1 VKL       0.040900
      2 C4          37.9690    -5.8000    -3.3770 cc         1 VKL       0.383500
      3 C5          35.7640    -4.8390    -4.5870 cz         1 VKL       0.071000
      4 C6          35.1530    -2.8480    -5.5460 c5         1 VKL       0.048600
      5 N1          35.8330    -6.0870    -4.1140 na         1 VKL       0.185800
      6 C7          36.5650    -2.6870    -4.9630 c5         1 VKL       0.026600
      7 C8          37.9350    -4.4520    -3.8280 cd         1 VKL       0.104000
      8 N2          34.8000    -4.2240    -5.1930 nu         1 VKL      -0.339000
      9 C11         38.9690    -7.5080    -1.9090 ca         1 VKL      -0.068000
     10 C10         40.0650    -8.0810    -1.3130 ca         1 VKL       0.155000
     11 N3          36.8540    -4.0320    -4.4170 na         1 VKL       0.047000
     12 N           36.9140    -6.5490    -3.5370 nc         1 VKL      -0.350800
     13 C9          41.3340    -7.5530    -1.5060 ca         1 VKL       0.242000
     14 C1          41.5150    -6.4450    -2.3050 ca         1 VKL      -0.120000
     15 C2          40.4160    -5.8590    -2.9150 ca         1 VKL      -0.052000
     16 C3          39.1410    -6.3830    -2.7180 ca         1 VKL      -0.227500
     17 F1          39.9240    -9.1550    -0.5390 f          1 VKL      -0.111000
     18 H1          34.9780    -7.9410    -3.8040 h1         1 VKL       0.120033
     19 H3          33.8470    -6.5710    -3.6720 h1         1 VKL       0.120033
     20 H2          34.4220    -7.1070    -5.2770 h1         1 VKL       0.120033
     21 H4          34.4420    -2.1610    -5.0960 h1         1 VKL       0.141700
     22 H5          35.1380    -2.7340    -6.6270 h1         1 VKL       0.141700
     23 H6          37.3160    -2.4510    -5.7120 h1         1 VKL       0.143700
     24 H7          36.6150    -1.9730    -4.1440 h1         1 VKL       0.143700
     25 H8          38.7440    -3.7440    -3.7000 h4         1 VKL       0.235000
     26 H9          33.8980    -4.6290    -5.4120 hn         1 VKL       0.438000
     27 H10         37.9900    -7.9330    -1.7310 ha         1 VKL       0.157000
     28 H15         40.5880    -5.0090    -3.5610 ha         1 VKL       0.119000
     29 H11         42.5080    -6.0470    -2.4600 ha         1 VKL       0.178000
     30 F           42.3680    -8.1350    -0.9070 f          1 VKL      -0.095000
@<TRIPOS>BOND
     1     1     5 1   
     2     1    18 1   
     3     1    19 1   
     4     1    20 1   
     5     2     7 2   
     6     2    12 1   
     7     2    16 1   
     8     3     5 1   
     9     3     8 2   
    10     3    11 1   
    11     4     6 1   
    12     4     8 1   
    13     4    21 1   
    14     4    22 1   
    15     5    12 2   
    16     6    11 1   
    17     6    23 1   
    18     6    24 1   
    19     7    11 1   
    20     7    25 1   
    21     8    26 1   
    22     9    10 ar  
    23     9    16 ar  
    24     9    27 1   
    25    10    13 ar  
    26    10    17 1   
    27    13    14 ar  
    28    13    30 1   
    29    14    15 ar  
    30    14    29 1   
    31    15    16 ar  
    32    15    28 1   
@<TRIPOS>SUBSTRUCTURE
     1 VKL         1 TEMP              0 ****  ****    0 ROOT
