@<TRIPOS>MOLECULE
VKM
   46    50     1     0     0
SMALL
bcc


@<TRIPOS>ATOM
      1 C1          58.2420    62.7970    83.4870 c3         1 VKM       0.030600
      2 C13         60.7740    60.6870    88.3230 cc         1 VKM       0.514700
      3 C15         62.2050    62.1050    88.8020 cd         1 VKM       0.561300
      4 C18         62.7960    63.3940    89.2630 c5         1 VKM      -0.127000
      5 C20         64.3020    64.1510    87.5900 c5         1 VKM       0.192400
      6 C23         65.5650    64.8930    87.2530 ca         1 VKM      -0.102300
      7 C24         65.8640    66.1050    87.8730 ca         1 VKM      -0.082500
      8 C25         67.0350    66.7850    87.5820 ca         1 VKM      -0.174500
      9 C26         67.9080    66.2390    86.6580 ca         1 VKM       0.139900
     10 C28         66.4650    64.3760    86.3300 ca         1 VKM      -0.082500
     11 C6          57.6260    62.0020    85.8050 cc         1 VKM      -0.340200
     12 C7          58.7330    61.2240    86.2340 c          1 VKM       0.753100
     13 N9          58.4980    60.7150    87.5190 n          1 VKM      -0.399300
     14 O21         63.2080    65.0490    87.5980 os         1 VKM      -0.409600
     15 C10         57.3700    60.9770    88.2450 cc         1 VKM       0.492800
     16 C12         59.5430    59.8820    88.0790 c3         1 VKM       0.069700
     17 C19         64.2910    63.5280    88.9840 c5         1 VKM      -0.106400
     18 C22         62.2120    64.6030    88.5030 c5         1 VKM       0.138400
     19 C27         67.6470    65.0400    86.0260 ca         1 VKM      -0.174500
     20 C3          56.1690    63.2430    84.8020 cc         1 VKM       0.438400
     21 C5          56.5130    62.2060    86.6020 cd         1 VKM       0.566300
     22 F29         69.0400    66.8990    86.3660 f          1 VKM      -0.143900
     23 N11         56.3760    61.6900    87.8510 nd         1 VKM      -0.628700
     24 N14         60.8540    61.9040    88.7330 nd         1 VKM      -0.713000
     25 N16         62.8990    61.0640    88.4610 nc         1 VKM      -0.368300
     26 N2          57.3820    62.6830    84.6460 na         1 VKM      -0.144900
     27 N4          55.6090    62.9830    85.9630 nd         1 VKM      -0.644000
     28 O17         61.9540    60.1230    88.1420 os         1 VKM      -0.119100
     29 H31         58.4600    61.8150    83.0760 h1         1 VKM       0.064367
     30 H30         57.7280    63.3890    82.7350 h1         1 VKM       0.064367
     31 H32         59.1730    63.2920    83.7510 h1         1 VKM       0.064367
     32 H37         62.5800    63.4820    90.3300 hc         1 VKM       0.087700
     33 H40         64.1450    63.3610    86.8400 h1         1 VKM       0.056700
     34 H43         65.1780    66.5320    88.5940 ha         1 VKM       0.139500
     35 H44         67.2660    67.7270    88.0630 ha         1 VKM       0.149500
     36 H46         66.2450    63.4390    85.8330 ha         1 VKM       0.139500
     37 H34         57.3450    60.5260    89.2300 h5         1 VKM       0.052800
     38 H36         59.1920    59.4670    89.0250 h1         1 VKM       0.090700
     39 H35         59.7630    59.0440    87.4190 h1         1 VKM       0.090700
     40 H38         64.8440    62.5920    89.0290 hc         1 VKM       0.072200
     41 H39         64.7360    64.2140    89.7070 hc         1 VKM       0.072200
     42 H41         61.9720    65.4130    89.1940 h1         1 VKM       0.060200
     43 H42         61.2980    64.3410    87.9650 h1         1 VKM       0.060200
     44 H45         68.3440    64.6340    85.3050 ha         1 VKM       0.149500
     45 H33         55.7270    63.8440    84.0200 h5         1 VKM       0.062100
     46 O8          59.7750    60.9850    85.6470 o          1 VKM      -0.616500
@<TRIPOS>BOND
     1     1    26 1   
     2     1    29 1   
     3     1    30 1   
     4     1    31 1   
     5     2    16 1   
     6     2    24 2   
     7     2    28 1   
     8     3     4 1   
     9     3    24 1   
    10     3    25 2   
    11     4    17 1   
    12     4    18 1   
    13     4    32 1   
    14     5     6 1   
    15     5    14 1   
    16     5    17 1   
    17     5    33 1   
    18     6     7 ar  
    19     6    10 ar  
    20     7     8 ar  
    21     7    34 1   
    22     8     9 ar  
    23     8    35 1   
    24     9    19 ar  
    25     9    22 1   
    26    10    19 ar  
    27    10    36 1   
    28    11    12 1   
    29    11    21 2   
    30    11    26 1   
    31    12    13 1   
    32    12    46 2   
    33    13    15 1   
    34    13    16 1   
    35    14    18 1   
    36    15    23 2   
    37    15    37 1   
    38    16    38 1   
    39    16    39 1   
    40    17    40 1   
    41    17    41 1   
    42    18    42 1   
    43    18    43 1   
    44    19    44 1   
    45    20    26 1   
    46    20    27 2   
    47    20    45 1   
    48    21    23 1   
    49    21    27 1   
    50    25    28 1   
@<TRIPOS>SUBSTRUCTURE
     1 VKM         1 TEMP              0 ****  ****    0 ROOT
