@<TRIPOS>MOLECULE
VKM
   46    50     1     0     0
SMALL
No Charge or Current Charge


@<TRIPOS>ATOM
      1 C1          56.3340    61.9250    83.5180 c3         1 VKM       0.059900
      2 C13         60.9590    61.0750    87.4710 cc         1 VKM       0.470300
      3 C15         62.2290    62.7290    87.7030 cd         1 VKM       0.561300
      4 C18         62.7820    64.0390    88.2330 c5         1 VKM      -0.127000
      5 C20         64.9550    64.5950    87.3260 c5         1 VKM       0.215600
      6 C23         66.3430    65.1020    87.7180 ca         1 VKM      -0.102300
      7 C24         66.5060    66.2700    88.4960 ca         1 VKM      -0.064500
      8 C25         67.7910    66.7180    88.8490 ca         1 VKM      -0.156500
      9 C26         68.9210    66.0030    88.4270 ca         1 VKM       0.175000
     10 C28         67.4890    64.3930    87.3010 ca         1 VKM      -0.064500
     11 C6          56.7730    61.5340    86.0040 cc         1 VKM      -0.325600
     12 C7          58.0960    60.9380    86.0520 c          1 VKM       0.610600
     13 N9          58.5070    60.6440    87.3440 n          1 VKM      -0.332300
     14 O21         64.0510    65.6750    87.0540 os         1 VKM      -0.456000
     15 C10         57.6990    60.9420    88.4290 cc         1 VKM       0.492800
     16 C12         59.8570    60.0490    87.5490 c3         1 VKM       0.069700
     17 C19         64.3120    63.9340    88.5700 c5         1 VKM      -0.106400
     18 C22         62.7230    65.1170    87.1030 c5         1 VKM       0.161600
     19 C27         68.7740    64.8420    87.6540 ca         1 VKM      -0.156500
     20 C3          54.8130    62.4490    85.4910 cc         1 VKM       0.438400
     21 C5          56.0280    61.7830    87.1160 cd         1 VKM       0.501000
     22 F29         70.1560    66.4330    88.7670 f          1 VKM      -0.179000
     23 N11         56.4840    61.4870    88.3810 nd         1 VKM      -0.628700
     24 N14         61.0700    62.1740    88.1900 nd         1 VKM      -0.713000
     25 N16         62.8110    62.0270    86.7410 nc         1 VKM      -0.368300
     26 N2          55.9910    61.9670    84.9480 na         1 VKM      -0.123500
     27 N4          54.8200    62.3440    86.8130 nd         1 VKM      -0.644000
     28 O17         61.9660    60.9090    86.5730 os         1 VKM      -0.074700
     29 H31         56.5140    60.8870    83.2140 h1         1 VKM       0.064367
     30 H30         55.5120    62.3380    82.9210 h1         1 VKM       0.064367
     31 H32         57.2410    62.5160    83.3410 h1         1 VKM       0.064367
     32 H37         62.2160    64.3690    89.1120 hc         1 VKM       0.087700
     33 H40         64.9870    63.9170    86.4600 h1         1 VKM       0.056700
     34 H43         65.6350    66.8300    88.8280 ha         1 VKM       0.121500
     35 H44         67.9120    67.6170    89.4490 ha         1 VKM       0.131500
     36 H46         67.3840    63.4910    86.7020 ha         1 VKM       0.121500
     37 H34         58.1320    60.6890    89.3890 h5         1 VKM       0.052800
     38 H36         59.9050    59.5640    88.5320 h1         1 VKM       0.090700
     39 H35         60.0360    59.2710    86.7960 h1         1 VKM       0.090700
     40 H38         64.6600    62.9060    88.7270 hc         1 VKM       0.072200
     41 H39         64.5440    64.4920    89.4850 hc         1 VKM       0.072200
     42 H41         61.9950    65.9120    87.3130 h1         1 VKM       0.060200
     43 H42         62.4880    64.6850    86.1200 h1         1 VKM       0.060200
     44 H45         69.6540    64.2920    87.3310 ha         1 VKM       0.131500
     45 H33         54.0140    62.8520    84.8800 h5         1 VKM       0.062100
     46 O8          58.7830    60.7170    85.0650 o          1 VKM      -0.541000
@<TRIPOS>BOND
     1     1    26 1   
     2     1    29 1   
     3     1    30 1   
     4     1    31 1   
     5     2    16 1   
     6     2    24 2   
     7     2    28 1   
     8     3     4 1   
     9     3    24 1   
    10     3    25 2   
    11     4    17 1   
    12     4    18 1   
    13     4    32 1   
    14     5     6 1   
    15     5    14 1   
    16     5    17 1   
    17     5    33 1   
    18     6     7 ar  
    19     6    10 ar  
    20     7     8 ar  
    21     7    34 1   
    22     8     9 ar  
    23     8    35 1   
    24     9    19 ar  
    25     9    22 1   
    26    10    19 ar  
    27    10    36 1   
    28    11    12 1   
    29    11    21 2   
    30    11    26 1   
    31    12    13 1   
    32    12    46 2   
    33    13    15 1   
    34    13    16 1   
    35    14    18 1   
    36    15    23 2   
    37    15    37 1   
    38    16    38 1   
    39    16    39 1   
    40    17    40 1   
    41    17    41 1   
    42    18    42 1   
    43    18    43 1   
    44    19    44 1   
    45    20    26 1   
    46    20    27 2   
    47    20    45 1   
    48    21    23 1   
    49    21    27 1   
    50    25    28 1   
@<TRIPOS>SUBSTRUCTURE
     1 VKM         1 TEMP              0 ****  ****    0 ROOT
