@<TRIPOS>MOLECULE
VKN
   27    27     1     0     0
SMALL
No Charge or Current Charge


@<TRIPOS>ATOM
      1 C1          45.5860   101.5850    18.5040 c6         1 VKN       0.143300
      2 C2          44.5870   101.8250    19.6940 c6         1 VKN       0.153300
      3 C7          46.5560   100.3710    18.7550 c6         1 VKN       0.171800
      4 C5          47.2860   100.4810    20.1310 c6         1 VKN      -0.112700
      5 C6          48.2800    99.2990    20.3490 c3         1 VKN       0.159600
      6 O6          47.6000    98.0370    20.4430 oh         1 VKN      -0.685000
      7 C4          46.2570   100.6500    21.2920 c6         1 VKN       0.171800
      8 O4          46.9250   100.7920    22.5600 oh         1 VKN      -0.728000
      9 C3          45.3450   101.8980    21.0560 c6         1 VKN       0.143300
     10 O3          44.4030   102.0210    22.1430 oh         1 VKN      -0.729000
     11 O2          43.5540   100.8290    19.7830 oh         1 VKN      -0.701000
     12 O5          45.8840    99.1050    18.6820 oh         1 VKN      -0.728000
     13 H1          44.9990   101.3660    17.5990 h1         1 VKN       0.064200
     14 O1          46.3730   102.7790    18.2870 oh         1 VKN      -0.729000
     15 H2          44.1090   102.8030    19.5320 h1         1 VKN       0.033700
     16 H6          47.3260   100.4020    17.9690 h1         1 VKN       0.058700
     17 H5          47.9140   101.3820    20.1050 hc         1 VKN       0.082700
     18 H61         48.9900    99.2820    19.5110 h1         1 VKN       0.034200
     19 H62         48.8650    99.4850    21.2600 h1         1 VKN       0.034200
     20 HO6         48.2770    97.3620    20.6830 ho         1 VKN       0.453000
     21 H4          45.6110    99.7580    21.3160 h1         1 VKN       0.058700
     22 HO4         47.2740    99.9010    22.7970 ho         1 VKN       0.521000
     23 H3          45.9950   102.7860    21.0290 h1         1 VKN       0.064200
     24 HO3         44.9430   101.8450    22.9520 ho         1 VKN       0.514000
     25 HO2         43.2480   100.9020    20.7200 ho         1 VKN       0.517000
     26 HO5         46.4080    98.5290    19.3070 ho         1 VKN       0.521000
     27 H7          45.8060   103.4150    17.7880 ho         1 VKN       0.514000
@<TRIPOS>BOND
     1     1     2 1   
     2     1     3 1   
     3     1    13 1   
     4     1    14 1   
     5     2     9 1   
     6     2    11 1   
     7     2    15 1   
     8     3     4 1   
     9     3    12 1   
    10     3    16 1   
    11     4     5 1   
    12     4     7 1   
    13     4    17 1   
    14     5     6 1   
    15     5    18 1   
    16     5    19 1   
    17     6    20 1   
    18     7     8 1   
    19     7     9 1   
    20     7    21 1   
    21     8    22 1   
    22     9    10 1   
    23     9    23 1   
    24    10    24 1   
    25    11    25 1   
    26    12    26 1   
    27    14    27 1   
@<TRIPOS>SUBSTRUCTURE
     1 VKN         1 TEMP              0 ****  ****    0 ROOT
