@<TRIPOS>MOLECULE
VKN
   27    27     1     0     0
SMALL
abcg2


@<TRIPOS>ATOM
      1 C1          45.5810   101.5120    18.5520 c6         1 VKN       0.143300
      2 C2          44.6500   101.7580    19.7450 c6         1 VKN       0.153300
      3 C7          46.5690   100.3620    18.7690 c6         1 VKN       0.171800
      4 C5          47.2940   100.4780    20.1180 c6         1 VKN      -0.112700
      5 C6          48.2890    99.3470    20.3300 c3         1 VKN       0.159600
      6 O6          47.5840    98.1220    20.4700 oh         1 VKN      -0.685000
      7 C4          46.3060   100.6330    21.2760 c6         1 VKN       0.171800
      8 O4          47.0070   100.8050    22.4980 oh         1 VKN      -0.728000
      9 C3          45.4450   101.8700    21.0430 c6         1 VKN       0.143300
     10 O3          44.5200   102.0750    22.0860 oh         1 VKN      -0.729000
     11 O2          43.6950   100.7270    19.8020 oh         1 VKN      -0.701000
     12 O5          45.8670    99.1510    18.6150 oh         1 VKN      -0.728000
     13 H1          44.9610   101.2660    17.6780 h1         1 VKN       0.064200
     14 O1          46.3600   102.6630    18.2990 oh         1 VKN      -0.729000
     15 H2          44.1450   102.7240    19.5710 h1         1 VKN       0.033700
     16 H6          47.3360   100.4550    17.9830 h1         1 VKN       0.058700
     17 H5          47.8980   101.3930    20.0740 hc         1 VKN       0.082700
     18 H61         48.9720    99.3100    19.4730 h1         1 VKN       0.034200
     19 H62         48.8960    99.5460    21.2180 h1         1 VKN       0.034200
     20 HO6         48.2160    97.3990    20.5320 ho         1 VKN       0.453000
     21 H4          45.6560    99.7540    21.3360 h1         1 VKN       0.058700
     22 HO4         46.7860   100.0830    23.0910 ho         1 VKN       0.521000
     23 H3          46.1180   102.7360    20.9500 h1         1 VKN       0.064200
     24 HO3         44.9910   101.9730    22.9200 ho         1 VKN       0.514000
     25 HO2         43.1540   100.8760    20.5840 ho         1 VKN       0.517000
     26 HO5         46.3400    98.4730    19.1200 ho         1 VKN       0.521000
     27 H7          45.7670   103.3980    18.1150 ho         1 VKN       0.514000
@<TRIPOS>BOND
     1     1     2 1   
     2     1     3 1   
     3     1    13 1   
     4     1    14 1   
     5     2     9 1   
     6     2    11 1   
     7     2    15 1   
     8     3     4 1   
     9     3    12 1   
    10     3    16 1   
    11     4     5 1   
    12     4     7 1   
    13     4    17 1   
    14     5     6 1   
    15     5    18 1   
    16     5    19 1   
    17     6    20 1   
    18     7     8 1   
    19     7     9 1   
    20     7    21 1   
    21     8    22 1   
    22     9    10 1   
    23     9    23 1   
    24    10    24 1   
    25    11    25 1   
    26    12    26 1   
    27    14    27 1   
@<TRIPOS>SUBSTRUCTURE
     1 VKN         1 TEMP              0 ****  ****    0 ROOT
