@<TRIPOS>MOLECULE
VKO
   31    32     1     0     0
SMALL
No Charge or Current Charge


@<TRIPOS>ATOM
      1 C7          -1.2500    15.1620   -35.7200 c3         1 VKO       0.150300
      2 C8          -1.9290    16.5450   -37.6950 c          1 VKO       0.629100
      3 C9          -2.7450    16.5050   -38.9410 cx         1 VKO      -0.334000
      4 O1          -4.8990    15.8240   -38.3830 o          1 VKO      -0.717000
      5 C1          -0.4430    12.7270   -35.8950 ca         1 VKO      -0.043300
      6 C5          -2.2410    13.2890   -34.3410 ca         1 VKO      -0.099000
      7 C6          -1.3040    13.6920   -35.3140 ca         1 VKO      -0.086300
      8 C4          -2.3250    11.9460   -33.9420 ca         1 VKO      -0.127000
      9 C3          -1.4710    10.9910   -34.5140 ca         1 VKO      -0.116000
     10 C2          -0.5360    11.3810   -35.4860 ca         1 VKO      -0.121000
     11 O2          -4.6090    17.9100   -38.8470 o          1 VKO      -0.717000
     12 C12         -4.1990    16.7690   -38.7100 c          1 VKO       0.744000
     13 C11         -2.1110    16.9700   -40.2450 cx         1 VKO      -0.101400
     14 C10         -2.3550    15.4990   -40.0160 cx         1 VKO      -0.101400
     15 O           -1.2530    17.5090   -37.3650 o          1 VKO      -0.703100
     16 N           -1.9880    15.3970   -36.9560 ns         1 VKO      -0.512900
     17 H1          -0.2080    15.4790   -35.8540 h1         1 VKO       0.043700
     18 H2          -1.6880    15.7840   -34.9290 h1         1 VKO       0.043700
     19 H4          -2.9100    14.0210   -33.8920 ha         1 VKO       0.106000
     20 H5          -3.0510    11.6450   -33.1900 ha         1 VKO       0.099000
     21 H6          -1.5350     9.9500   -34.2060 ha         1 VKO       0.097000
     22 H7           0.1190    10.6300   -35.9230 ha         1 VKO       0.100000
     23 H8          -1.0810    17.3200   -40.2210 hc         1 VKO       0.070450
     24 H9          -2.7420    17.4770   -40.9720 hc         1 VKO       0.070450
     25 H10         -3.1490    15.0250   -40.5890 hc         1 VKO       0.070450
     26 H11         -1.4860    14.8680   -39.8420 hc         1 VKO       0.070450
     27 H12         -2.5960    14.6690   -37.3100 hn         1 VKO       0.390500
     28 H13          0.1070    13.6040   -37.8130 hc         1 VKO       0.050033
     29 H14          1.3360    13.7960   -36.5480 hc         1 VKO       0.050033
     30 H15          1.1160    12.2350   -37.3450 hc         1 VKO       0.050033
     31 C            0.5840    13.1110   -36.9570 c3         1 VKO      -0.054800
@<TRIPOS>BOND
     1     1     7 1   
     2     1    16 1   
     3     1    17 1   
     4     1    18 1   
     5     2     3 1   
     6     2    15 2   
     7     2    16 1   
     8     3    12 1   
     9     3    13 1   
    10     3    14 1   
    11     4    12 1   
    12     5     7 ar  
    13     5    10 ar  
    14     5    31 1   
    15     6     7 ar  
    16     6     8 ar  
    17     6    19 1   
    18     8     9 ar  
    19     8    20 1   
    20     9    10 ar  
    21     9    21 1   
    22    10    22 1   
    23    11    12 1   
    24    13    14 1   
    25    13    23 1   
    26    13    24 1   
    27    14    25 1   
    28    14    26 1   
    29    16    27 1   
    30    28    31 1   
    31    29    31 1   
    32    30    31 1   
@<TRIPOS>SUBSTRUCTURE
     1 VKO         1 TEMP              0 ****  ****    0 ROOT
