@<TRIPOS>MOLECULE
VKO
   31    32     1     0     0
SMALL
abcg2


@<TRIPOS>ATOM
      1 C7          -1.1670    15.1980   -35.6050 c3         1 VKO       0.150300
      2 C8          -1.5400    16.1470   -37.8490 c          1 VKO       0.629100
      3 C9          -2.4940    16.2170   -39.0190 cx         1 VKO      -0.334000
      4 O1          -4.1940    14.8170   -38.0290 o          1 VKO      -0.717000
      5 C1          -0.7930    12.7110   -35.9750 ca         1 VKO      -0.043300
      6 C5          -1.9350    13.4540   -33.9760 ca         1 VKO      -0.099000
      7 C6          -1.2960    13.7550   -35.1770 ca         1 VKO      -0.086300
      8 C4          -2.0880    12.1390   -33.5480 ca         1 VKO      -0.127000
      9 C3          -1.5930    11.1050   -34.3330 ca         1 VKO      -0.116000
     10 C2          -0.9510    11.3980   -35.5320 ca         1 VKO      -0.121000
     11 O2          -4.5500    15.6560   -40.0660 o          1 VKO      -0.717000
     12 C12         -3.8560    15.5060   -39.0370 c          1 VKO       0.744000
     13 C11         -2.4310    17.5350   -39.7890 cx         1 VKO      -0.101400
     14 C10         -1.8000    16.3320   -40.3740 cx         1 VKO      -0.101400
     15 O           -0.4260    16.6890   -37.9010 o          1 VKO      -0.703100
     16 N           -1.9770    15.4740   -36.7770 ns         1 VKO      -0.512900
     17 H1          -0.1340    15.4430   -35.8530 h1         1 VKO       0.043700
     18 H2          -1.4650    15.8460   -34.7770 h1         1 VKO       0.043700
     19 H4          -2.3200    14.2650   -33.3690 ha         1 VKO       0.106000
     20 H5          -2.5890    11.9270   -32.6120 ha         1 VKO       0.099000
     21 H6          -1.7010    10.0760   -34.0140 ha         1 VKO       0.097000
     22 H7          -0.5590    10.5900   -36.1400 ha         1 VKO       0.100000
     23 H8          -1.7840    18.2940   -39.3710 hc         1 VKO       0.070450
     24 H9          -3.3700    17.8710   -40.2030 hc         1 VKO       0.070450
     25 H10         -2.3040    15.8390   -41.1920 hc         1 VKO       0.070450
     26 H11         -0.7210    16.2660   -40.3560 hc         1 VKO       0.070450
     27 H12         -2.9000    15.0420   -36.9030 hn         1 VKO       0.390500
     28 H13         -0.8280    13.2770   -38.0530 hc         1 VKO       0.050033
     29 H14          0.6180    13.7920   -37.2070 hc         1 VKO       0.050033
     30 H15          0.4110    12.0890   -37.6390 hc         1 VKO       0.050033
     31 C           -0.1070    12.9800   -37.2870 c3         1 VKO      -0.054800
@<TRIPOS>BOND
     1     1     7 1   
     2     1    16 1   
     3     1    17 1   
     4     1    18 1   
     5     2     3 1   
     6     2    15 2   
     7     2    16 1   
     8     3    12 1   
     9     3    13 1   
    10     3    14 1   
    11     4    12 1   
    12     5     7 ar  
    13     5    10 ar  
    14     5    31 1   
    15     6     7 ar  
    16     6     8 ar  
    17     6    19 1   
    18     8     9 ar  
    19     8    20 1   
    20     9    10 ar  
    21     9    21 1   
    22    10    22 1   
    23    11    12 1   
    24    13    14 1   
    25    13    23 1   
    26    13    24 1   
    27    14    25 1   
    28    14    26 1   
    29    16    27 1   
    30    28    31 1   
    31    29    31 1   
    32    30    31 1   
@<TRIPOS>SUBSTRUCTURE
     1 VKO         1 TEMP              0 ****  ****    0 ROOT
