@<TRIPOS>MOLECULE
VKP
   43    45     1     0     0
SMALL
bcc


@<TRIPOS>ATOM
      1 C1          21.1020    41.7640     5.4690 ca         1 VKP       0.196300
      2 C2          22.2140    42.9710     3.8810 ca         1 VKP       0.156900
      3 C3          23.0100    41.8350     3.5610 ca         1 VKP       0.652900
      4 C11         18.5030    40.9910     5.9870 ca         1 VKP       0.028900
      5 C12         18.4390    40.7130     4.6270 ca         1 VKP      -0.115000
      6 C13         17.3070    40.1270     4.0850 ca         1 VKP      -0.108000
      7 C14         16.2200    39.8110     4.8830 ca         1 VKP      -0.125000
      8 C15         16.2750    40.0920     6.2390 ca         1 VKP       0.037400
      9 C16         17.4080    40.6790     6.7920 ca         1 VKP       0.023400
     10 N1          21.2970    42.8970     4.8130 nb         1 VKP      -0.534000
     11 N2          22.8300    40.7010     4.2330 nb         1 VKP      -0.835000
     12 C4          21.8940    40.6330     5.1730 ca         1 VKP       0.663900
     13 N3          21.7110    39.4460     5.7820 nv         1 VKP      -0.943500
     14 N4          23.9360    41.8430     2.5770 nh         1 VKP      -0.761300
     15 C5          24.9050    40.7670     2.4430 c6         1 VKP       0.216800
     16 C6          26.2460    41.1930     3.0370 c6         1 VKP      -0.117400
     17 C7          26.7900    42.5040     2.4380 c6         1 VKP       0.176200
     18 C8          25.6800    43.5610     2.4800 c6         1 VKP      -0.117400
     19 C9          24.3660    43.0520     1.8980 c6         1 VKP       0.216800
     20 C10         27.2680    42.2790     1.0030 c3         1 VKP      -0.084100
     21 N5          27.9270    43.0260     3.1930 n8         1 VKP      -0.879800
     22 S1          19.9130    41.7370     6.7630 ss         1 VKP      -0.215200
     23 CL1         17.4700    41.0300     8.4770 cl         1 VKP      -0.071400
     24 CL2         14.9260    39.7060     7.2370 cl         1 VKP      -0.084400
     25 H1          22.3290    43.9250     3.3880 h4         1 VKP       0.032100
     26 H2          19.2730    40.9590     3.9830 ha         1 VKP       0.150000
     27 H3          17.2700    39.9160     3.0250 ha         1 VKP       0.139000
     28 H4          15.3360    39.3540     4.4620 ha         1 VKP       0.150000
     29 H5          22.4170    38.7400     5.6550 hn         1 VKP       0.440300
     30 H6          21.1850    39.4060     6.6390 hn         1 VKP       0.440300
     31 H7          24.5300    39.8730     2.9320 h1         1 VKP       0.063950
     32 H8          25.0080    40.5380     1.3790 h1         1 VKP       0.063950
     33 H9          26.9780    40.3910     2.9010 hc         1 VKP       0.054700
     34 H10         26.1180    41.3260     4.1170 hc         1 VKP       0.054700
     35 H11         25.9980    44.4560     1.9380 hc         1 VKP       0.054700
     36 H12         25.5070    43.8640     3.5190 hc         1 VKP       0.054700
     37 H13         23.6020    43.8220     1.9400 h1         1 VKP       0.063950
     38 H14         24.4850    42.8100     0.8390 h1         1 VKP       0.063950
     39 H15         28.0870    41.5560     0.9800 hc         1 VKP       0.039700
     40 H16         26.4840    41.8960     0.3500 hc         1 VKP       0.039700
     41 H17         27.6340    43.2120     0.5710 hc         1 VKP       0.039700
     42 H18         27.6590    43.1390     4.1650 hn         1 VKP       0.339300
     43 H19         28.6730    42.3390     3.1980 hn         1 VKP       0.339300
@<TRIPOS>BOND
     1     1    10 ar  
     2     1    12 ar  
     3     1    22 1   
     4     2     3 ar  
     5     2    10 ar  
     6     2    25 1   
     7     3    11 ar  
     8     3    14 1   
     9     4     5 ar  
    10     4     9 ar  
    11     4    22 1   
    12     5     6 ar  
    13     5    26 1   
    14     6     7 ar  
    15     6    27 1   
    16     7     8 ar  
    17     7    28 1   
    18     8     9 ar  
    19     8    24 1   
    20     9    23 1   
    21    11    12 ar  
    22    12    13 1   
    23    13    29 1   
    24    13    30 1   
    25    14    15 1   
    26    14    19 1   
    27    15    16 1   
    28    15    31 1   
    29    15    32 1   
    30    16    17 1   
    31    16    33 1   
    32    16    34 1   
    33    17    18 1   
    34    17    20 1   
    35    17    21 1   
    36    18    19 1   
    37    18    35 1   
    38    18    36 1   
    39    19    37 1   
    40    19    38 1   
    41    20    39 1   
    42    20    40 1   
    43    20    41 1   
    44    21    42 1   
    45    21    43 1   
@<TRIPOS>SUBSTRUCTURE
     1 VKP         1 TEMP              0 ****  ****    0 ROOT
