@<TRIPOS>MOLECULE
VKP
   43    45     1     0     0
SMALL
No Charge or Current Charge


@<TRIPOS>ATOM
      1 C1          20.8090    42.1010     5.9500 ca         1 VKP       0.196300
      2 C2          22.3160    43.3620     4.7730 ca         1 VKP       0.156900
      3 C3          23.0740    42.1830     4.4620 ca         1 VKP       0.652900
      4 C11         18.2700    41.0900     5.7990 ca         1 VKP      -0.098000
      5 C12         18.0010    41.6460     4.5340 ca         1 VKP      -0.097000
      6 C13         17.1840    40.9610     3.6190 ca         1 VKP      -0.090000
      7 C14         16.6320    39.7160     3.9650 ca         1 VKP      -0.107000
      8 C15         16.8950    39.1540     5.2260 ca         1 VKP       0.129000
      9 C16         17.7150    39.8400     6.1490 ca         1 VKP       0.115000
     10 N1          21.1770    43.3380     5.5220 nb         1 VKP      -0.534000
     11 N2          22.7080    40.9560     4.9020 nb         1 VKP      -0.835000
     12 C4          21.5900    40.9370     5.6240 ca         1 VKP       0.663900
     13 N3          21.3580    39.6690     6.0020 nv         1 VKP      -1.053900
     14 N4          24.2580    42.2110     3.6850 nh         1 VKP      -0.761300
     15 C5          25.2220    41.0690     3.6970 c6         1 VKP       0.216800
     16 C6          26.6630    41.5470     3.3880 c6         1 VKP      -0.117400
     17 C7          26.7480    42.3450     2.0630 c6         1 VKP       0.176200
     18 C8          25.7340    43.5160     2.1300 c6         1 VKP      -0.117400
     19 C9          24.2970    43.0290     2.4390 c6         1 VKP       0.216800
     20 C10         26.5080    41.4360     0.8190 c3         1 VKP      -0.084100
     21 N5          28.1020    42.9060     1.9360 n8         1 VKP      -0.990200
     22 S1          19.3200    41.9860     6.9420 ss         1 VKP      -0.088300
     23 Cl1         18.0570    39.1330     7.7340 cl         1 VKP      -0.163000
     24 Cl2         16.1850    37.5890     5.6250 cl         1 VKP      -0.176000
     25 H1          22.6370    44.3430     4.4280 h4         1 VKP       0.032100
     26 H2          18.4220    42.6110     4.2600 ha         1 VKP       0.132000
     27 H3          16.9780    41.3950     2.6420 ha         1 VKP       0.121000
     28 H4          16.0000    39.1860     3.2570 ha         1 VKP       0.132000
     29 H5          22.1520    39.0550     5.8700 hn         1 VKP       0.495500
     30 H6          20.7950    39.5160     6.8300 hn         1 VKP       0.495500
     31 H7          25.2410    40.5840     4.6850 h1         1 VKP       0.063950
     32 H8          24.9160    40.3040     2.9690 h1         1 VKP       0.063950
     33 H9          27.3340    40.6770     3.3570 hc         1 VKP       0.054700
     34 H10         27.0070    42.1720     4.2240 hc         1 VKP       0.054700
     35 H11         25.7340    44.0760     1.1860 hc         1 VKP       0.054700
     36 H12         26.0380    44.2280     2.9100 hc         1 VKP       0.054700
     37 H13         23.6500    43.9140     2.5210 h1         1 VKP       0.063950
     38 H14         23.9160    42.4410     1.5920 h1         1 VKP       0.063950
     39 H15         27.2440    40.6240     0.7690 hc         1 VKP       0.039700
     40 H16         25.5170    40.9690     0.8300 hc         1 VKP       0.039700
     41 H17         26.5840    42.0070    -0.1140 hc         1 VKP       0.039700
     42 H18         28.6660    42.5790     2.7280 hn         1 VKP       0.394500
     43 H19         28.5580    42.4790     1.1240 hn         1 VKP       0.394500
@<TRIPOS>BOND
     1     1    10 ar  
     2     1    12 ar  
     3     1    22 1   
     4     2     3 ar  
     5     2    10 ar  
     6     2    25 1   
     7     3    11 ar  
     8     3    14 1   
     9     4     5 ar  
    10     4     9 ar  
    11     4    22 1   
    12     5     6 ar  
    13     5    26 1   
    14     6     7 ar  
    15     6    27 1   
    16     7     8 ar  
    17     7    28 1   
    18     8     9 ar  
    19     8    24 1   
    20     9    23 1   
    21    11    12 ar  
    22    12    13 1   
    23    13    29 1   
    24    13    30 1   
    25    14    15 1   
    26    14    19 1   
    27    15    16 1   
    28    15    31 1   
    29    15    32 1   
    30    16    17 1   
    31    16    33 1   
    32    16    34 1   
    33    17    18 1   
    34    17    20 1   
    35    17    21 1   
    36    18    19 1   
    37    18    35 1   
    38    18    36 1   
    39    19    37 1   
    40    19    38 1   
    41    20    39 1   
    42    20    40 1   
    43    20    41 1   
    44    21    42 1   
    45    21    43 1   
@<TRIPOS>SUBSTRUCTURE
     1 VKP         1 TEMP              0 ****  ****    0 ROOT
