@<TRIPOS>MOLECULE
VKQ
   57    60     1     0     0
SMALL
No Charge or Current Charge


@<TRIPOS>ATOM
      1 C1          24.1140    28.7220    38.2750 c3         1 VKQ      -0.027200
      2 C2          25.3080    28.0690    37.5940 cc         1 VKQ      -0.173400
      3 C3          25.5140    27.9820    36.2230 cd         1 VKQ      -0.099200
      4 C7          29.0210    26.0570    34.6750 ca         1 VKQ      -0.040300
      5 C8          28.8000    26.1500    36.0630 ca         1 VKQ      -0.148000
      6 C9          27.6460    26.7840    36.5510 ca         1 VKQ       0.093600
      7 C10         26.3190    27.4850    38.5340 c          1 VKQ       0.559200
      8 C11         30.2780    25.3720    34.1420 c3         1 VKQ       0.212100
      9 C12         31.6000    27.4700    33.9360 c6         1 VKQ       0.156800
     10 C13         32.9020    28.2280    34.3500 c6         1 VKQ       0.204300
     11 C14         34.0820    26.0300    34.5050 c6         1 VKQ       0.204300
     12 C15         32.7530    25.3200    34.0890 c6         1 VKQ       0.156800
     13 C16         35.3950    28.1300    33.8740 ca         1 VKQ       0.279000
     14 C19         37.8090    29.5140    33.4960 ca         1 VKQ       0.240500
     15 C20         35.5220    29.2880    33.0560 ca         1 VKQ       0.285900
     16 C21         39.1310    30.2640    33.2970 c          1 VKQ       0.510600
     17 C22         40.2040    32.2320    32.1380 c3         1 VKQ       0.098300
     18 O1          40.1870    29.9270    33.8250 o          1 VKQ      -0.615100
     19 N4          39.0690    31.3690    32.4700 ns         1 VKQ      -0.491900
     20 C18         37.7720    28.3710    34.3260 ca         1 VKQ      -0.062000
     21 C17         36.5630    27.6730    34.5170 ca         1 VKQ      -0.167000
     22 N3          36.6840    29.9680    32.8640 nb         1 VKQ      -0.651000
     23 N2          34.1480    27.4540    34.0390 nh         1 VKQ      -0.787400
     24 N1          31.5320    26.0820    34.4930 n3         1 VKQ      -0.723600
     25 C6          28.0730    26.6070    33.7880 ca         1 VKQ      -0.147000
     26 C5          26.9180    27.2410    34.2810 ca         1 VKQ      -0.053000
     27 C4          26.7050    27.3290    35.6680 ca         1 VKQ      -0.126800
     28 N           27.4000    26.8930    37.9280 ns         1 VKQ      -0.373100
     29 O           26.2280    27.5110    39.7530 o          1 VKQ      -0.555000
     30 C           23.0540    29.3330    37.3350 c3         1 VKQ      -0.091100
     31 H1          24.4700    29.5140    38.9460 hc         1 VKQ       0.062700
     32 H2          23.6150    27.9830    38.9140 hc         1 VKQ       0.062700
     33 H3          24.7860    28.4030    35.5360 ha         1 VKQ       0.189000
     34 H4          29.5290    25.7340    36.7540 ha         1 VKQ       0.136000
     35 H5          30.1980    25.2690    33.0510 h1         1 VKQ       0.045700
     36 H6          30.3030    24.3540    34.5540 h1         1 VKQ       0.045700
     37 H7          30.7380    28.0640    34.2730 h1         1 VKQ       0.045950
     38 H8          31.5530    27.4360    32.8370 h1         1 VKQ       0.045950
     39 H9          32.9050    29.2020    33.8400 h1         1 VKQ       0.048950
     40 H10         32.8580    28.4320    35.4300 h1         1 VKQ       0.048950
     41 H11         34.9190    25.4520    34.0880 h1         1 VKQ       0.048950
     42 H12         34.1710    25.9950    35.6010 h1         1 VKQ       0.048950
     43 H13         32.7640    25.1820    32.9970 h1         1 VKQ       0.045950
     44 H14         32.7420    24.3160    34.5370 h1         1 VKQ       0.045950
     45 H15         34.6590    29.6830    32.5230 h4         1 VKQ       0.020100
     46 H16         39.8710    33.0310    31.4630 h1         1 VKQ       0.038700
     47 H17         40.6090    32.6790    33.0550 h1         1 VKQ       0.038700
     48 H18         40.9850    31.6420    31.6430 h1         1 VKQ       0.038700
     49 H19         38.1550    31.5730    32.0770 hn         1 VKQ       0.340500
     50 H20         38.6770    28.0290    34.8210 ha         1 VKQ       0.146000
     51 H21         36.5460    26.8030    35.1670 ha         1 VKQ       0.122000
     52 H23         28.2310    26.5450    32.7140 ha         1 VKQ       0.116000
     53 H24         26.1940    27.6610    33.5860 ha         1 VKQ       0.118000
     54 H25         28.0900    26.4960    38.5510 hn         1 VKQ       0.328500
     55 H26         22.2390    29.7760    37.9200 hc         1 VKQ       0.034700
     56 H27         23.4930    30.1230    36.7130 hc         1 VKQ       0.034700
     57 H28         22.6230    28.5660    36.6810 hc         1 VKQ       0.034700
@<TRIPOS>BOND
     1     1     2 1   
     2     1    30 1   
     3     1    31 1   
     4     1    32 1   
     5     2     3 2   
     6     2     7 1   
     7     3    27 1   
     8     3    33 1   
     9     4     5 ar  
    10     4     8 1   
    11     4    25 ar  
    12     5     6 ar  
    13     5    34 1   
    14     6    27 ar  
    15     6    28 1   
    16     7    28 1   
    17     7    29 2   
    18     8    24 1   
    19     8    35 1   
    20     8    36 1   
    21     9    10 1   
    22     9    24 1   
    23     9    37 1   
    24     9    38 1   
    25    10    23 1   
    26    10    39 1   
    27    10    40 1   
    28    11    12 1   
    29    11    23 1   
    30    11    41 1   
    31    11    42 1   
    32    12    24 1   
    33    12    43 1   
    34    12    44 1   
    35    13    15 ar  
    36    13    21 ar  
    37    13    23 1   
    38    14    16 1   
    39    14    20 ar  
    40    14    22 ar  
    41    15    22 ar  
    42    15    45 1   
    43    16    18 2   
    44    16    19 1   
    45    17    19 1   
    46    17    46 1   
    47    17    47 1   
    48    17    48 1   
    49    19    49 1   
    50    20    21 ar  
    51    20    50 1   
    52    21    51 1   
    53    25    26 ar  
    54    25    52 1   
    55    26    27 ar  
    56    26    53 1   
    57    28    54 1   
    58    30    55 1   
    59    30    56 1   
    60    30    57 1   
@<TRIPOS>SUBSTRUCTURE
     1 VKQ         1 TEMP              0 ****  ****    0 ROOT
