@<TRIPOS>MOLECULE
VKQ
   57    60     1     0     0
SMALL
bcc


@<TRIPOS>ATOM
      1 C1          24.6170    29.0900    38.2650 c3         1 VKQ      -0.027200
      2 C2          25.7600    28.4380    37.5460 cc         1 VKQ      -0.173400
      3 C3          25.6410    27.7550    36.3870 cd         1 VKQ      -0.049200
      4 C7          29.0340    26.0110    34.5460 ca         1 VKQ      -0.040300
      5 C8          29.1490    26.6960    35.7420 ca         1 VKQ      -0.166000
      6 C9          28.0210    27.2670    36.3320 ca         1 VKQ       0.093600
      7 C10         27.0800    28.5740    38.1680 c          1 VKQ       0.701700
      8 C11         30.2390    25.3610    33.9140 c3         1 VKQ       0.212100
      9 C12         31.5360    27.3380    33.4600 c6         1 VKQ       0.156800
     10 C13         32.7530    28.1280    33.8940 c6         1 VKQ       0.204300
     11 C14         33.9010    26.0250    34.3060 c6         1 VKQ       0.204300
     12 C15         32.6430    25.2990    33.8700 c6         1 VKQ       0.156800
     13 C16         35.1860    28.0100    33.7690 ca         1 VKQ       0.075300
     14 C19         37.5760    29.4000    33.7330 ca         1 VKQ       0.305800
     15 C20         35.3450    29.3030    33.2230 ca         1 VKQ       0.351200
     16 C21         38.8540    30.1730    33.6910 c          1 VKQ       0.577600
     17 C22         39.9060    32.2570    32.9890 c3         1 VKQ       0.098300
     18 O1          39.8950    29.7130    34.1480 o          1 VKQ      -0.615100
     19 N4          38.7690    31.3820    33.1260 ns         1 VKQ      -0.558900
     20 C18         37.5350    28.1370    34.3000 ca         1 VKQ      -0.145300
     21 C17         36.3400    27.4430    34.3250 ca         1 VKQ      -0.185000
     22 N3          36.4870    29.9560    33.2080 nb         1 VKQ      -0.651000
     23 N2          33.9760    27.3530    33.7250 nh         1 VKQ      -0.649000
     24 N1          31.4650    26.0810    34.1750 n3         1 VKQ      -0.723600
     25 C6          27.7770    25.8930    33.9380 ca         1 VKQ      -0.165000
     26 C5          26.6610    26.4470    34.5260 ca         1 VKQ      -0.071000
     27 C4          26.7610    27.1460    35.7340 ca         1 VKQ      -0.126800
     28 N           28.1140    27.9650    37.5090 ns         1 VKQ      -0.440100
     29 O           27.2790    29.1880    39.2090 o          1 VKQ      -0.630500
     30 C           23.2610    28.9420    37.5950 c3         1 VKQ      -0.091100
     31 H1          24.8450    30.1530    38.3930 hc         1 VKQ       0.062700
     32 H2          24.5660    28.6870    39.2810 hc         1 VKQ       0.062700
     33 H3          24.6720    27.6490    35.9120 ha         1 VKQ       0.139000
     34 H4          30.1180    26.8020    36.2140 ha         1 VKQ       0.154000
     35 H5          30.0540    25.2250    32.8360 h1         1 VKQ       0.045700
     36 H6          30.3450    24.3540    34.3310 h1         1 VKQ       0.045700
     37 H7          30.6510    27.9400    33.6740 h1         1 VKQ       0.045950
     38 H8          31.5680    27.1790    32.3690 h1         1 VKQ       0.045950
     39 H9          32.7890    29.0340    33.2950 h1         1 VKQ       0.048950
     40 H10         32.6350    28.4310    34.9430 h1         1 VKQ       0.048950
     41 H11         34.7520    25.4320    33.9710 h1         1 VKQ       0.048950
     42 H12         33.9400    26.0690    35.4040 h1         1 VKQ       0.048950
     43 H13         32.7120    25.0680    32.7940 h1         1 VKQ       0.045950
     44 H14         32.5990    24.3480    34.4030 h1         1 VKQ       0.045950
     45 H15         34.5090    29.8180    32.7660 h4         1 VKQ       0.020100
     46 H16         39.5820    33.1680    32.4950 h1         1 VKQ       0.038700
     47 H17         40.3290    32.5250    33.9580 h1         1 VKQ       0.038700
     48 H18         40.6950    31.8030    32.3880 h1         1 VKQ       0.038700
     49 H19         37.8680    31.6760    32.7830 hn         1 VKQ       0.340500
     50 H20         38.4240    27.6980    34.7340 ha         1 VKQ       0.164000
     51 H21         36.3210    26.4690    34.7910 ha         1 VKQ       0.140000
     52 H23         27.6860    25.3660    32.9960 ha         1 VKQ       0.134000
     53 H24         25.6920    26.3540    34.0510 ha         1 VKQ       0.136000
     54 H25         29.0270    28.0560    37.9370 hn         1 VKQ       0.328500
     55 H26         22.4970    29.4470    38.1850 hc         1 VKQ       0.034700
     56 H27         23.2500    29.3840    36.5970 hc         1 VKQ       0.034700
     57 H28         22.9650    27.8960    37.5020 hc         1 VKQ       0.034700
@<TRIPOS>BOND
     1     1     2 1   
     2     1    30 1   
     3     1    31 1   
     4     1    32 1   
     5     2     3 2   
     6     2     7 1   
     7     3    27 1   
     8     3    33 1   
     9     4     5 ar  
    10     4     8 1   
    11     4    25 ar  
    12     5     6 ar  
    13     5    34 1   
    14     6    27 ar  
    15     6    28 1   
    16     7    28 1   
    17     7    29 2   
    18     8    24 1   
    19     8    35 1   
    20     8    36 1   
    21     9    10 1   
    22     9    24 1   
    23     9    37 1   
    24     9    38 1   
    25    10    23 1   
    26    10    39 1   
    27    10    40 1   
    28    11    12 1   
    29    11    23 1   
    30    11    41 1   
    31    11    42 1   
    32    12    24 1   
    33    12    43 1   
    34    12    44 1   
    35    13    15 ar  
    36    13    21 ar  
    37    13    23 1   
    38    14    16 1   
    39    14    20 ar  
    40    14    22 ar  
    41    15    22 ar  
    42    15    45 1   
    43    16    18 2   
    44    16    19 1   
    45    17    19 1   
    46    17    46 1   
    47    17    47 1   
    48    17    48 1   
    49    19    49 1   
    50    20    21 ar  
    51    20    50 1   
    52    21    51 1   
    53    25    26 ar  
    54    25    52 1   
    55    26    27 ar  
    56    26    53 1   
    57    28    54 1   
    58    30    55 1   
    59    30    56 1   
    60    30    57 1   
@<TRIPOS>SUBSTRUCTURE
     1 VKQ         1 TEMP              0 ****  ****    0 ROOT
