@<TRIPOS>MOLECULE
VKS
   52    55     1     0     0
SMALL
abcg2


@<TRIPOS>ATOM
      1 C1          17.5070    39.4920     4.1120 ca         1 VKS       0.397900
      2 C2          16.3770    39.4900     6.0990 ca         1 VKS       0.628900
      3 C3          17.4870    40.0790     6.7330 ca         1 VKS      -0.017000
      4 O1          29.0270    41.4850     1.7340 os         1 VKS      -0.462000
      5 C11         25.1910    40.3000     2.7640 c6         1 VKS       0.210800
      6 C12         26.4860    40.7050     3.4590 c6         1 VKS      -0.089900
      7 C13         27.0490    42.0390     2.9340 c5         1 VKS      -0.076000
      8 C14         25.9380    43.0900     2.9600 c6         1 VKS      -0.089900
      9 C15         27.6730    41.8620     1.5410 c5         1 VKS       0.152600
     10 C16         29.3600    41.5320     3.1190 c5         1 VKS       0.125300
     11 C17         28.2950    42.4390     3.7520 c5         1 VKS       0.142500
     12 C18         30.7960    41.9750     3.2920 c3         1 VKS      -0.096100
     13 N1          16.4100    39.2030     4.8000 nb         1 VKS      -0.751000
     14 C4          18.6300    40.3710     6.0100 ca         1 VKS      -0.032000
     15 C5          18.6390    40.0700     4.6480 ca         1 VKS      -0.213000
     16 S1          19.9890    41.1100     6.8580 ss         1 VKS      -0.079300
     17 C6          21.2360    41.1780     5.6200 ca         1 VKS       0.198300
     18 N2          21.4380    42.3240     4.9910 nb         1 VKS      -0.533000
     19 C7          22.3960    42.4310     4.1040 ca         1 VKS       0.158900
     20 C8          23.2290    41.3170     3.8070 ca         1 VKS       0.652900
     21 N3          23.0400    40.1680     4.4510 nb         1 VKS      -0.836000
     22 C9          22.0620    40.0660     5.3450 ca         1 VKS       0.666900
     23 N4          21.8770    38.8670     5.9260 nv         1 VKS      -1.056900
     24 CL1         17.4140    40.4420     8.4250 cl         1 VKS      -0.193000
     25 C10         24.6710    42.5950     2.2690 c6         1 VKS       0.210800
     26 N5          24.2030    41.3600     2.8710 nh         1 VKS      -0.758300
     27 N6          28.5530    43.8650     3.6840 n8         1 VKS      -0.997200
     28 N7          15.2270    39.2320     6.7680 nv         1 VKS      -1.058900
     29 H1          17.4850    39.2450     3.0570 h4         1 VKS       0.018100
     30 H2          24.7970    39.3840     3.1940 h1         1 VKS       0.063700
     31 H3          25.3660    40.1090     1.7020 h1         1 VKS       0.063700
     32 H4          26.2920    40.7970     4.5320 hc         1 VKS       0.060700
     33 H5          27.2120    39.8960     3.3410 hc         1 VKS       0.060700
     34 H6          26.2650    44.0130     2.4810 hc         1 VKS       0.060700
     35 H7          25.6990    43.3420     3.9970 hc         1 VKS       0.060700
     36 H8          27.6270    42.7990     0.9690 h1         1 VKS       0.045200
     37 H9          27.1660    41.1010     0.9400 h1         1 VKS       0.045200
     38 H10         29.2620    40.5260     3.5500 h1         1 VKS       0.046700
     39 H11         28.1610    42.1810     4.8070 h1         1 VKS       0.074700
     40 H12         31.0510    42.0020     4.3530 hc         1 VKS       0.044033
     41 H13         31.4800    41.2770     2.8100 hc         1 VKS       0.044033
     42 H14         30.9750    42.9670     2.8760 hc         1 VKS       0.044033
     43 H15         19.4940    40.2830     4.0220 ha         1 VKS       0.137000
     44 H16         22.5120    43.3940     3.6290 h4         1 VKS       0.032100
     45 H17         22.5950    38.1720     5.8130 hn         1 VKS       0.496000
     46 H18         21.3000    38.7930     6.7470 hn         1 VKS       0.496000
     47 H19         24.8610    42.4000     1.2100 h1         1 VKS       0.063700
     48 H20         23.9010    43.3610     2.2910 h1         1 VKS       0.063700
     49 H21         29.3580    44.0950     4.2530 hn         1 VKS       0.403000
     50 H22         28.7920    44.1500     2.7400 hn         1 VKS       0.403000
     51 H24         14.5660    38.6300     6.3050 hn         1 VKS       0.484000
     52 H25         15.2370    39.1660     7.7710 hn         1 VKS       0.484000
@<TRIPOS>BOND
     1     1    13 ar  
     2     1    15 ar  
     3     1    29 1   
     4     2     3 ar  
     5     2    13 ar  
     6     2    28 1   
     7     3    14 ar  
     8     3    24 1   
     9     4     9 1   
    10     4    10 1   
    11     5     6 1   
    12     5    26 1   
    13     5    30 1   
    14     5    31 1   
    15     6     7 1   
    16     6    32 1   
    17     6    33 1   
    18     7     8 1   
    19     7     9 1   
    20     7    11 1   
    21     8    25 1   
    22     8    34 1   
    23     8    35 1   
    24     9    36 1   
    25     9    37 1   
    26    10    11 1   
    27    10    12 1   
    28    10    38 1   
    29    11    27 1   
    30    11    39 1   
    31    12    40 1   
    32    12    41 1   
    33    12    42 1   
    34    14    15 ar  
    35    14    16 1   
    36    15    43 1   
    37    16    17 1   
    38    17    18 ar  
    39    17    22 ar  
    40    18    19 ar  
    41    19    20 ar  
    42    19    44 1   
    43    20    21 ar  
    44    20    26 1   
    45    21    22 ar  
    46    22    23 1   
    47    23    45 1   
    48    23    46 1   
    49    25    26 1   
    50    25    47 1   
    51    25    48 1   
    52    27    49 1   
    53    27    50 1   
    54    28    51 1   
    55    28    52 1   
@<TRIPOS>SUBSTRUCTURE
     1 VKS         1 TEMP              0 ****  ****    0 ROOT
