@<TRIPOS>MOLECULE
VKS
   52    55     1     0     0
SMALL
No Charge or Current Charge


@<TRIPOS>ATOM
      1 C1          17.4310    40.4220     3.4680 ca         1 VKS       0.397900
      2 C2          16.9830    38.7290     4.9320 ca         1 VKS       0.628900
      3 C3          17.6430    39.3710     6.0060 ca         1 VKS      -0.017000
      4 O1          28.3950    40.7910     1.5290 os         1 VKS      -0.462000
      5 C11         25.3670    40.7460     4.5680 c6         1 VKS       0.210800
      6 C12         26.8390    41.2200     4.4540 c6         1 VKS      -0.089900
      7 C13         27.1290    42.0750     3.1680 c5         1 VKS      -0.076000
      8 C14         26.0960    43.2500     3.2270 c6         1 VKS      -0.089900
      9 C15         27.0450    41.2290     1.8430 c5         1 VKS       0.152600
     10 C16         29.2780    41.2180     2.5870 c5         1 VKS       0.125300
     11 C17         28.6260    42.5530     3.0820 c5         1 VKS       0.142500
     12 C18         30.7300    41.3020     2.0670 c3         1 VKS      -0.096100
     13 N1          16.8700    39.2120     3.6990 nb         1 VKS      -0.751000
     14 C4          18.2240    40.6280     5.7570 ca         1 VKS      -0.032000
     15 C5          18.1090    41.1550     4.4580 ca         1 VKS      -0.213000
     16 S1          19.0840    41.5410     7.0350 ss         1 VKS      -0.079300
     17 C6          20.6920    41.6950     6.2570 ca         1 VKS       0.198300
     18 N2          21.1090    42.9470     5.9330 nb         1 VKS      -0.533000
     19 C7          22.3390    43.0000     5.3490 ca         1 VKS       0.158900
     20 C8          23.1380    41.8340     5.0970 ca         1 VKS       0.652900
     21 N3          22.7210    40.5910     5.4340 nb         1 VKS      -0.836000
     22 C9          21.5150    40.5440     5.9960 ca         1 VKS       0.666900
     23 N4          21.2410    39.2610     6.2880 nv         1 VKS      -1.056900
     24 Cl1         17.7550    38.6180     7.6060 cl         1 VKS      -0.193000
     25 C10         24.6300    42.7630     3.3060 c6         1 VKS       0.210800
     26 N5          24.4170    41.8930     4.4930 nh         1 VKS      -0.758300
     27 N6          28.8350    43.6800     2.1390 n8         1 VKS      -0.997200
     28 N7          16.3890    37.5270     5.0060 nv         1 VKS      -1.058900
     29 H1          17.3330    40.8160     2.4570 h4         1 VKS       0.018100
     30 H2          25.2640    40.2190     5.5290 h1         1 VKS       0.063700
     31 H3          25.1450    40.0170     3.7750 h1         1 VKS       0.063700
     32 H4          27.0870    41.8110     5.3460 hc         1 VKS       0.060700
     33 H5          27.4780    40.3310     4.4990 hc         1 VKS       0.060700
     34 H6          26.1950    43.8930     2.3430 hc         1 VKS       0.060700
     35 H7          26.3120    43.8900     4.0930 hc         1 VKS       0.060700
     36 H8          26.6820    41.8340     1.0010 h1         1 VKS       0.045200
     37 H9          26.3880    40.3540     1.9350 h1         1 VKS       0.045200
     38 H10         29.2660    40.4590     3.3790 h1         1 VKS       0.046700
     39 H11         29.0120    42.8570     4.0670 h1         1 VKS       0.074700
     40 H12         31.3980    41.7050     2.8380 hc         1 VKS       0.044033
     41 H13         31.1020    40.3070     1.7950 hc         1 VKS       0.044033
     42 H14         30.8100    41.9400     1.1800 hc         1 VKS       0.044033
     43 H15         18.5340    42.1240     4.2100 ha         1 VKS       0.137000
     44 H16         22.7000    43.9940     5.0900 h4         1 VKS       0.032100
     45 H17         22.0490    38.6550     6.2420 hn         1 VKS       0.496000
     46 H18         20.5690    39.0750     7.0220 hn         1 VKS       0.496000
     47 H19         24.3770    42.2130     2.3870 h1         1 VKS       0.063700
     48 H20         23.9780    43.6480     3.3360 h1         1 VKS       0.063700
     49 H21         29.8370    43.8900     2.0870 hn         1 VKS       0.403000
     50 H22         28.6210    43.3380     1.1960 hn         1 VKS       0.403000
     51 H24         16.2060    37.0920     4.1110 hn         1 VKS       0.484000
     52 H25         16.6760    36.9150     5.7620 hn         1 VKS       0.484000
@<TRIPOS>BOND
     1     1    13 ar  
     2     1    15 ar  
     3     1    29 1   
     4     2     3 ar  
     5     2    13 ar  
     6     2    28 1   
     7     3    14 ar  
     8     3    24 1   
     9     4     9 1   
    10     4    10 1   
    11     5     6 1   
    12     5    26 1   
    13     5    30 1   
    14     5    31 1   
    15     6     7 1   
    16     6    32 1   
    17     6    33 1   
    18     7     8 1   
    19     7     9 1   
    20     7    11 1   
    21     8    25 1   
    22     8    34 1   
    23     8    35 1   
    24     9    36 1   
    25     9    37 1   
    26    10    11 1   
    27    10    12 1   
    28    10    38 1   
    29    11    27 1   
    30    11    39 1   
    31    12    40 1   
    32    12    41 1   
    33    12    42 1   
    34    14    15 ar  
    35    14    16 1   
    36    15    43 1   
    37    16    17 1   
    38    17    18 ar  
    39    17    22 ar  
    40    18    19 ar  
    41    19    20 ar  
    42    19    44 1   
    43    20    21 ar  
    44    20    26 1   
    45    21    22 ar  
    46    22    23 1   
    47    23    45 1   
    48    23    46 1   
    49    25    26 1   
    50    25    47 1   
    51    25    48 1   
    52    27    49 1   
    53    27    50 1   
    54    28    51 1   
    55    28    52 1   
@<TRIPOS>SUBSTRUCTURE
     1 VKS         1 TEMP              0 ****  ****    0 ROOT
