@<TRIPOS>MOLECULE
VKT
   54    57     1     0     0
SMALL
bcc


@<TRIPOS>ATOM
      1 C1          16.9490    45.2710     6.1210 c3         1 VKT      -0.027200
      2 C2          15.7370    44.3910     6.2050 cc         1 VKT      -0.175400
      3 C3          15.7410    43.1340     6.6980 cd         1 VKT      -0.048200
      4 C7          12.1820    40.8410     6.8040 ca         1 VKT      -0.037300
      5 C8          12.1810    42.1290     6.3010 ca         1 VKT      -0.165000
      6 C9          13.3610    42.8720     6.2780 ca         1 VKT       0.093600
      7 C10         14.4840    44.9660     5.7090 c          1 VKT       0.701700
      8 C11         10.9270    40.0070     6.7860 c3         1 VKT       0.209100
      9 C12          8.5320    40.0310     6.6810 c6         1 VKT       0.159800
     10 C13          7.2930    40.8860     6.8590 c6         1 VKT       0.191300
     11 C14          8.4190    42.1180     8.5840 c6         1 VKT       0.191300
     12 C15          9.6470    41.2540     8.3920 c6         1 VKT       0.159800
     13 C16          6.0170    41.9490     8.5850 cc         1 VKT       0.603400
     14 O           14.3930    46.0970     5.2480 o          1 VKT      -0.631500
     15 C           18.2310    44.6600     6.6620 c3         1 VKT      -0.091100
     16 N           13.3840    44.1530     5.7870 ns         1 VKT      -0.440100
     17 C4          14.5600    42.3260     6.7540 ca         1 VKT      -0.128800
     18 C6          13.3760    40.2920     7.2920 ca         1 VKT      -0.166000
     19 C5          14.5440    41.0220     7.2620 ca         1 VKT      -0.072000
     20 N1           9.7280    40.7790     7.0230 n3         1 VKT      -0.720600
     21 N2           7.2210    41.3600     8.2300 nh         1 VKT      -0.737300
     22 N4           5.6030    41.9830     9.8790 na         1 VKT      -0.187900
     23 C18          4.3800    42.6140     9.8970 cc         1 VKT      -0.213900
     24 C17          4.1140    42.9040     8.5920 cd         1 VKT       0.309200
     25 N3           5.1400    42.4930     7.7820 nd         1 VKT      -0.702000
     26 H1          17.0980    45.5610     5.0760 hc         1 VKT       0.062700
     27 H2          16.7400    46.2070     6.6460 hc         1 VKT       0.062700
     28 H3          16.6610    42.6960     7.0690 ha         1 VKT       0.138000
     29 H4          11.2590    42.5650     5.9330 ha         1 VKT       0.156000
     30 H5          10.8390    39.5450     5.7970 h1         1 VKT       0.043700
     31 H6          11.0330    39.1750     7.5010 h1         1 VKT       0.043700
     32 H7           8.5960    39.7160     5.6380 h1         1 VKT       0.041200
     33 H8           8.4340    39.1190     7.2930 h1         1 VKT       0.041200
     34 H9           7.3200    41.7200     6.1440 h1         1 VKT       0.052950
     35 H10          6.4080    40.2890     6.6360 h1         1 VKT       0.052950
     36 H11          8.3670    42.4360     9.6250 h1         1 VKT       0.052950
     37 H12          8.5040    43.0240     7.9670 h1         1 VKT       0.052950
     38 H13          9.6170    40.4140     9.1070 h1         1 VKT       0.041200
     39 H14         10.5320    41.8480     8.6270 h1         1 VKT       0.041200
     40 H15          5.5650    40.9680    11.6970 h1         1 VKT       0.052367
     41 H16          6.9630    40.6370    10.6740 h1         1 VKT       0.052367
     42 H17          6.8590    42.1670    11.5600 h1         1 VKT       0.052367
     43 H18          3.3220    41.9390    11.6450 hc         1 VKT       0.045033
     44 H19          4.1660    43.4680    11.8570 hc         1 VKT       0.045033
     45 H20          2.6920    43.4020    10.8960 hc         1 VKT       0.045033
     46 H21         19.0510    45.3710     6.5670 hc         1 VKT       0.034033
     47 H22         18.1430    44.4000     7.7170 hc         1 VKT       0.034033
     48 H23         18.5140    43.7590     6.1170 hc         1 VKT       0.034033
     49 H24         12.5160    44.5480     5.4490 hn         1 VKT       0.329500
     50 H25         13.3770    39.2880     7.6970 ha         1 VKT       0.134000
     51 H26         15.4660    40.5930     7.6380 ha         1 VKT       0.134000
     52 H28          3.2360    43.3920     8.1970 h4         1 VKT       0.036100
     53 C19          6.2850    41.4160    11.0160 c3         1 VKT       0.028600
     54 C20          3.6070    42.8640    11.1390 c3         1 VKT      -0.014800
@<TRIPOS>BOND
     1     1     2 1   
     2     1    15 1   
     3     1    26 1   
     4     1    27 1   
     5     2     3 2   
     6     2     7 1   
     7     3    17 1   
     8     3    28 1   
     9     4     5 ar  
    10     4     8 1   
    11     4    18 ar  
    12     5     6 ar  
    13     5    29 1   
    14     6    16 1   
    15     6    17 ar  
    16     7    14 2   
    17     7    16 1   
    18     8    20 1   
    19     8    30 1   
    20     8    31 1   
    21     9    10 1   
    22     9    20 1   
    23     9    32 1   
    24     9    33 1   
    25    10    21 1   
    26    10    34 1   
    27    10    35 1   
    28    11    12 1   
    29    11    21 1   
    30    11    36 1   
    31    11    37 1   
    32    12    20 1   
    33    12    38 1   
    34    12    39 1   
    35    13    21 1   
    36    13    22 1   
    37    13    25 2   
    38    15    46 1   
    39    15    47 1   
    40    15    48 1   
    41    16    49 1   
    42    17    19 ar  
    43    18    19 ar  
    44    18    50 1   
    45    19    51 1   
    46    22    23 1   
    47    22    53 1   
    48    23    24 2   
    49    23    54 1   
    50    24    25 1   
    51    24    52 1   
    52    40    53 1   
    53    41    53 1   
    54    42    53 1   
    55    43    54 1   
    56    44    54 1   
    57    45    54 1   
@<TRIPOS>SUBSTRUCTURE
     1 VKT         1 TEMP              0 ****  ****    0 ROOT
