@<TRIPOS>MOLECULE
VKT
   54    57     1     0     0
SMALL
No Charge or Current Charge


@<TRIPOS>ATOM
      1 C1          17.2230    45.1540     6.1860 c3         1 VKT      -0.027200
      2 C2          15.9840    44.2720     6.1440 cc         1 VKT      -0.175400
      3 C3          15.7360    43.1790     6.9650 cd         1 VKT      -0.098200
      4 C7          12.1080    40.9290     6.5430 ca         1 VKT      -0.037300
      5 C8          12.3720    42.0380     5.7150 ca         1 VKT      -0.147000
      6 C9          13.5640    42.7620     5.8680 ca         1 VKT       0.093600
      7 C10         14.9760    44.6630     5.1060 c          1 VKT       0.559200
      8 C11         10.8080    40.1430     6.3810 c3         1 VKT       0.209100
      9 C12          8.3330    40.1920     6.4050 c6         1 VKT       0.159800
     10 C13          7.0510    41.0300     6.7130 c6         1 VKT       0.191300
     11 C14          8.3090    42.2660     8.4530 c6         1 VKT       0.191300
     12 C15          9.5740    41.4080     8.1320 c6         1 VKT       0.159800
     13 C16          5.8590    41.8950     8.7280 cc         1 VKT       0.603400
     14 O           15.1020    45.6070     4.3380 o          1 VKT      -0.556000
     15 C           18.2810    44.7780     7.2450 c3         1 VKT      -0.091100
     16 N           13.8530    43.8720     5.0600 ns         1 VKT      -0.373100
     17 C4          14.5030    42.3930     6.8400 ca         1 VKT      -0.128800
     18 C6          13.0540    40.5590     7.5210 ca         1 VKT      -0.148000
     19 C5          14.2480    41.2870     7.6700 ca         1 VKT      -0.054000
     20 N1           9.5960    40.9290     6.7140 n3         1 VKT      -0.720600
     21 N2           7.0420    41.5490     8.1150 nh         1 VKT      -0.737300
     22 N4           5.6230    41.9280    10.0940 na         1 VKT      -0.166500
     23 C18          4.3180    42.3460    10.2650 cc         1 VKT      -0.199300
     24 C17          3.8170    42.5060     8.9970 cd         1 VKT       0.243900
     25 N3           4.7760    42.2150     8.0500 nd         1 VKT      -0.702000
     26 H1          17.7090    45.1420     5.2020 hc         1 VKT       0.062700
     27 H2          16.9200    46.1930     6.3640 hc         1 VKT       0.062700
     28 H3          16.4610    42.8890     7.7190 ha         1 VKT       0.188000
     29 H4          11.6450    42.3340     4.9620 ha         1 VKT       0.138000
     30 H5          10.7520    39.8010     5.3380 h1         1 VKT       0.043700
     31 H6          10.8530    39.2400     7.0060 h1         1 VKT       0.043700
     32 H7           8.3120    39.9000     5.3450 h1         1 VKT       0.041200
     33 H8           8.2880    39.2630     6.9930 h1         1 VKT       0.041200
     34 H9           6.9980    41.8700     6.0050 h1         1 VKT       0.052950
     35 H10          6.1700    40.3970     6.5310 h1         1 VKT       0.052950
     36 H11          8.3390    42.5530     9.5130 h1         1 VKT       0.052950
     37 H12          8.3660    43.1990     7.8740 h1         1 VKT       0.052950
     38 H13          9.5970    40.5500     8.8200 h1         1 VKT       0.041200
     39 H14         10.4640    42.0160     8.3480 h1         1 VKT       0.041200
     40 H15          5.9930    41.0650    11.9900 h1         1 VKT       0.052367
     41 H16          7.2730    40.7920    10.7810 h1         1 VKT       0.052367
     42 H17          7.0870    42.4050    11.5390 h1         1 VKT       0.052367
     43 H18          3.4790    41.5850    12.1010 hc         1 VKT       0.045033
     44 H19          4.2150    43.1940    12.2470 hc         1 VKT       0.045033
     45 H20          2.6420    43.0060    11.4540 hc         1 VKT       0.045033
     46 H21         19.1300    45.4700     7.1950 hc         1 VKT       0.034033
     47 H22         17.8590    44.8320     8.2560 hc         1 VKT       0.034033
     48 H23         18.6600    43.7630     7.0740 hc         1 VKT       0.034033
     49 H24         13.1650    44.1260     4.3640 hn         1 VKT       0.329500
     50 H25         12.8630    39.7060     8.1690 ha         1 VKT       0.116000
     51 H26         14.9690    40.9910     8.4290 ha         1 VKT       0.116000
     52 H28          2.8170    42.8120     8.7150 h4         1 VKT       0.036100
     53 C19          6.5510    41.5240    11.1650 c3         1 VKT       0.057900
     54 C20          3.6270    42.5430    11.5890 c3         1 VKT      -0.014800
@<TRIPOS>BOND
     1     1     2 1   
     2     1    15 1   
     3     1    26 1   
     4     1    27 1   
     5     2     3 2   
     6     2     7 1   
     7     3    17 1   
     8     3    28 1   
     9     4     5 ar  
    10     4     8 1   
    11     4    18 ar  
    12     5     6 ar  
    13     5    29 1   
    14     6    16 1   
    15     6    17 ar  
    16     7    14 2   
    17     7    16 1   
    18     8    20 1   
    19     8    30 1   
    20     8    31 1   
    21     9    10 1   
    22     9    20 1   
    23     9    32 1   
    24     9    33 1   
    25    10    21 1   
    26    10    34 1   
    27    10    35 1   
    28    11    12 1   
    29    11    21 1   
    30    11    36 1   
    31    11    37 1   
    32    12    20 1   
    33    12    38 1   
    34    12    39 1   
    35    13    21 1   
    36    13    22 1   
    37    13    25 2   
    38    15    46 1   
    39    15    47 1   
    40    15    48 1   
    41    16    49 1   
    42    17    19 ar  
    43    18    19 ar  
    44    18    50 1   
    45    19    51 1   
    46    22    23 1   
    47    22    53 1   
    48    23    24 2   
    49    23    54 1   
    50    24    25 1   
    51    24    52 1   
    52    40    53 1   
    53    41    53 1   
    54    42    53 1   
    55    43    54 1   
    56    44    54 1   
    57    45    54 1   
@<TRIPOS>SUBSTRUCTURE
     1 VKT         1 TEMP              0 ****  ****    0 ROOT
