@<TRIPOS>MOLECULE
VKV
   66    65     1     0     0
SMALL
abcg2


@<TRIPOS>ATOM
      1 C10         10.4940     5.7710    -4.6180 c3         1 VKV       0.176300
      2 C15          9.8650     6.9870    -3.9550 c3         1 VKV       0.149600
      3 C17         15.2090     8.1010   -11.3820 c3         1 VKV      -0.089100
      4 C21         21.4610     5.6160    -8.8070 c3         1 VKV      -0.011000
      5 C22         17.5850     4.8300    -6.3420 c2         1 VKV      -0.203200
      6 O01         11.6350     6.0850    -5.3830 os         1 VKV      -0.438000
      7 O03         10.0530     3.8020    -5.8810 oh         1 VKV      -0.712500
      8 C04         13.9870     6.4700    -5.5740 c3         1 VKV      -0.073400
      9 C05         13.8860     7.6920    -6.4790 c3         1 VKV      -0.066400
     10 C06         12.8110     6.2960    -4.6360 c3         1 VKV       0.163600
     11 C07         18.8310     9.0320   -10.2820 c3         1 VKV      -0.069400
     12 C08         17.6000     8.1700   -10.5270 c3         1 VKV      -0.079400
     13 C11         20.0180     8.2760    -9.6880 c3         1 VKV      -0.043200
     14 C12         16.4230     8.9660   -11.0760 c3         1 VKV      -0.075400
     15 C14          9.5080     5.0510    -5.5200 c3         1 VKV       0.149600
     16 C16         20.5090     7.1690   -10.5740 c2         1 VKV      -0.213200
     17 C19         17.6200     5.9520    -7.3410 c3         1 VKV      -0.018000
     18 C23         21.0670     4.1930    -8.5340 c2         1 VKV      -0.215200
     19 C09         15.0860     7.8380    -7.4210 c3         1 VKV      -0.047200
     20 C13         16.3700     8.0670    -6.6890 c2         1 VKV      -0.215200
     21 C18         17.4420     7.2770    -6.6550 c2         1 VKV      -0.217200
     22 C20         21.1110     6.0400   -10.2030 c2         1 VKV      -0.221200
     23 C24         20.0770     4.4680    -6.2100 c3         1 VKV      -0.010000
     24 C25         18.6420     4.1920    -5.8450 c2         1 VKV      -0.221200
     25 C26         20.4900     3.7060    -7.4370 c2         1 VKV      -0.212200
     26 O02          9.4040     7.8820    -4.9400 oh         1 VKV      -0.712500
     27 H1          10.7650     5.0850    -3.7980 h1         1 VKV       0.043700
     28 H2           9.0510     6.6290    -3.3110 h1         1 VKV       0.027450
     29 H3          10.5970     7.4620    -3.2890 h1         1 VKV       0.027450
     30 H4          14.3780     8.6950   -11.7630 hc         1 VKV       0.031700
     31 H5          15.4430     7.3440   -12.1330 hc         1 VKV       0.031700
     32 H6          14.8600     7.5790   -10.4890 hc         1 VKV       0.031700
     33 H7          22.5500     5.6970    -8.6940 hc         1 VKV       0.050700
     34 H8          21.0380     6.2990    -8.0690 hc         1 VKV       0.050700
     35 H9          16.5970     4.5470    -5.9920 ha         1 VKV       0.169000
     36 H10          9.4690     3.3970    -6.5270 ho         1 VKV       0.501000
     37 H11         14.1080     5.5670    -6.1820 hc         1 VKV       0.049200
     38 H12         14.8870     6.5430    -4.9570 hc         1 VKV       0.049200
     39 H13         13.7920     8.5940    -5.8640 hc         1 VKV       0.046700
     40 H14         12.9780     7.6350    -7.0830 hc         1 VKV       0.046700
     41 H15         12.9930     5.4420    -3.9670 h1         1 VKV       0.016200
     42 H16         12.7250     7.1840    -3.9940 h1         1 VKV       0.016200
     43 H17         19.1390     9.4980   -11.2250 hc         1 VKV       0.036200
     44 H18         18.5660     9.8540    -9.6110 hc         1 VKV       0.036200
     45 H19         17.3030     7.6840    -9.5910 hc         1 VKV       0.042700
     46 H20         17.8450     7.3610   -11.2230 hc         1 VKV       0.042700
     47 H21         19.7510     7.8910    -8.7000 hc         1 VKV       0.046200
     48 H22         20.8310     8.9900    -9.5190 hc         1 VKV       0.046200
     49 H23         16.7350     9.4920   -11.9840 hc         1 VKV       0.034200
     50 H24         16.1470     9.7440   -10.3570 hc         1 VKV       0.034200
     51 H25          9.2910     5.6670    -6.4000 h1         1 VKV       0.027450
     52 H26          8.5650     4.9340    -4.9700 h1         1 VKV       0.027450
     53 H27         20.3740     7.3320   -11.6410 ha         1 VKV       0.167000
     54 H28         18.5680     5.9510    -7.8860 hc         1 VKV       0.055700
     55 H29         16.8400     5.7890    -8.0870 hc         1 VKV       0.055700
     56 H30         21.3010     3.4900    -9.3290 ha         1 VKV       0.167000
     57 H31         15.1480     6.9550    -8.0610 hc         1 VKV       0.045700
     58 H32         14.9040     8.6870    -8.0880 hc         1 VKV       0.045700
     59 H33         16.4090     8.9870    -6.1090 ha         1 VKV       0.163000
     60 H34         18.2870     7.5900    -6.0490 ha         1 VKV       0.164000
     61 H35         21.4190     5.3510   -10.9850 ha         1 VKV       0.166000
     62 H36         20.7140     4.1630    -5.3740 hc         1 VKV       0.048200
     63 H37         20.2440     5.5380    -6.3390 hc         1 VKV       0.048200
     64 H38         18.4690     3.3930    -5.1310 ha         1 VKV       0.168000
     65 H39         20.2870     2.6390    -7.4070 ha         1 VKV       0.169000
     66 H40          9.0110     8.6390    -4.4980 ho         1 VKV       0.501000
@<TRIPOS>BOND
     1     1     2 1   
     2     1     6 1   
     3     1    15 1   
     4     1    27 1   
     5     2    26 1   
     6     2    28 1   
     7     2    29 1   
     8     3    14 1   
     9     3    30 1   
    10     3    31 1   
    11     3    32 1   
    12     4    18 1   
    13     4    22 1   
    14     4    33 1   
    15     4    34 1   
    16     5    17 1   
    17     5    24 2   
    18     5    35 1   
    19     6    10 1   
    20     7    15 1   
    21     7    36 1   
    22     8     9 1   
    23     8    10 1   
    24     8    37 1   
    25     8    38 1   
    26     9    19 1   
    27     9    39 1   
    28     9    40 1   
    29    10    41 1   
    30    10    42 1   
    31    11    12 1   
    32    11    13 1   
    33    11    43 1   
    34    11    44 1   
    35    12    14 1   
    36    12    45 1   
    37    12    46 1   
    38    13    16 1   
    39    13    47 1   
    40    13    48 1   
    41    14    49 1   
    42    14    50 1   
    43    15    51 1   
    44    15    52 1   
    45    16    22 2   
    46    16    53 1   
    47    17    21 1   
    48    17    54 1   
    49    17    55 1   
    50    18    25 2   
    51    18    56 1   
    52    19    20 1   
    53    19    57 1   
    54    19    58 1   
    55    20    21 2   
    56    20    59 1   
    57    21    60 1   
    58    22    61 1   
    59    23    24 1   
    60    23    25 1   
    61    23    62 1   
    62    23    63 1   
    63    24    64 1   
    64    25    65 1   
    65    26    66 1   
@<TRIPOS>SUBSTRUCTURE
     1 VKV         1 TEMP              0 ****  ****    0 ROOT
