@<TRIPOS>MOLECULE
VKV
   66    65     1     0     0
SMALL
No Charge or Current Charge


@<TRIPOS>ATOM
      1 C10         10.8640     6.1010    -6.6130 c3         1 VKV       0.176300
      2 C15          9.9240     6.4360    -5.4070 c3         1 VKV       0.149600
      3 C17         15.2890     5.3180    -8.9080 c3         1 VKV      -0.089100
      4 C21         21.1520     5.5420   -10.1830 c3         1 VKV      -0.011000
      5 C22         18.1350     5.5400    -5.5940 c2         1 VKV      -0.203200
      6 O01         12.1700     6.7150    -6.4370 os         1 VKV      -0.438000
      7 O03         10.9970     6.0530    -9.0950 oh         1 VKV      -0.712500
      8 C04         14.3420     6.9050    -5.3910 c3         1 VKV      -0.073400
      9 C05         14.3000     8.4330    -5.1410 c3         1 VKV      -0.066400
     10 C06         12.9620     6.2200    -5.3410 c3         1 VKV       0.163600
     11 C07         17.8260     8.1430   -10.0100 c3         1 VKV      -0.069400
     12 C08         17.3020     6.7360    -9.6430 c3         1 VKV      -0.079400
     13 C11         19.3510     8.1930   -10.2510 c3         1 VKV      -0.043200
     14 C12         15.7900     6.7110    -9.3360 c3         1 VKV      -0.075400
     15 C14         10.2710     6.5890    -7.9690 c3         1 VKV       0.149600
     16 C16         19.7870     7.3320   -11.4260 c2         1 VKV      -0.213200
     17 C19         18.0570     7.0440    -5.7840 c3         1 VKV      -0.018000
     18 C23         20.3140     4.3570    -9.7370 c2         1 VKV      -0.215200
     19 C09         15.6760     9.1250    -5.2620 c3         1 VKV      -0.047200
     20 C13         16.6930     8.6040    -4.2590 c2         1 VKV      -0.215200
     21 C18         17.6960     7.7340    -4.4810 c2         1 VKV      -0.217200
     22 C20         20.5320     6.2110   -11.3950 c2         1 VKV      -0.221200
     23 C24         20.0090     4.9840    -7.2700 c3         1 VKV      -0.010000
     24 C25         18.9560     4.6750    -6.2180 c2         1 VKV      -0.221200
     25 C26         19.8360     4.1140    -8.5030 c2         1 VKV      -0.212200
     26 O02          9.7430     7.8550    -5.2230 oh         1 VKV      -0.712500
     27 H1          10.9650     5.0090    -6.6650 h1         1 VKV       0.043700
     28 H2           8.9520     5.9580    -5.5880 h1         1 VKV       0.027450
     29 H3          10.3300     5.9820    -4.4940 h1         1 VKV       0.027450
     30 H4          14.2160     5.3500    -8.6860 hc         1 VKV       0.031700
     31 H5          15.4550     4.5840    -9.7050 hc         1 VKV       0.031700
     32 H6          15.8160     4.9770    -8.0080 hc         1 VKV       0.031700
     33 H7          22.1580     5.1910   -10.4460 hc         1 VKV       0.050700
     34 H8          21.3090     6.2560    -9.3690 hc         1 VKV       0.050700
     35 H9          17.4240     5.1590    -4.8590 ha         1 VKV       0.169000
     36 H10         10.6200     6.4700    -9.9040 ho         1 VKV       0.501000
     37 H11         14.8040     6.7050    -6.3630 hc         1 VKV       0.049200
     38 H12         14.9830     6.4340    -4.6370 hc         1 VKV       0.049200
     39 H13         13.8870     8.6240    -4.1420 hc         1 VKV       0.046700
     40 H14         13.6140     8.9000    -5.8590 hc         1 VKV       0.046700
     41 H15         13.0970     5.1340    -5.4270 h1         1 VKV       0.016200
     42 H16         12.4880     6.4350    -4.3750 h1         1 VKV       0.016200
     43 H17         17.3060     8.5040   -10.9060 hc         1 VKV       0.036200
     44 H18         17.5790     8.8390    -9.1980 hc         1 VKV       0.036200
     45 H19         17.8510     6.3660    -8.7700 hc         1 VKV       0.042700
     46 H20         17.5120     6.0410   -10.4650 hc         1 VKV       0.042700
     47 H21         19.8570     7.9050    -9.3240 hc         1 VKV       0.046200
     48 H22         19.6420     9.2340   -10.4380 hc         1 VKV       0.046200
     49 H23         15.2330     7.0350   -10.2240 hc         1 VKV       0.034200
     50 H24         15.5690     7.4320    -8.5400 hc         1 VKV       0.034200
     51 H25         10.2850     7.6870    -7.9930 h1         1 VKV       0.027450
     52 H26          9.2200     6.2740    -8.0250 h1         1 VKV       0.027450
     53 H27         19.4180     7.6970   -12.3870 ha         1 VKV       0.167000
     54 H28         19.0100     7.4470    -6.1450 hc         1 VKV       0.055700
     55 H29         17.3220     7.2620    -6.5640 hc         1 VKV       0.055700
     56 H30         20.1090     3.6450   -10.5380 ha         1 VKV       0.167000
     57 H31         16.0360     9.0210    -6.2910 hc         1 VKV       0.045700
     58 H32         15.5390    10.2030    -5.1100 hc         1 VKV       0.045700
     59 H33         16.5600     9.0170    -3.2570 ha         1 VKV       0.163000
     60 H34         18.3540     7.4620    -3.6530 ha         1 VKV       0.164000
     61 H35         20.7550     5.6960   -12.3320 ha         1 VKV       0.166000
     62 H36         21.0020     4.8040    -6.8410 hc         1 VKV       0.048200
     63 H37         19.9880     6.0410    -7.5500 hc         1 VKV       0.048200
     64 H38         18.8960     3.6150    -5.9630 ha         1 VKV       0.168000
     65 H39         19.2490     3.2090    -8.3320 ha         1 VKV       0.169000
     66 H40          9.1760     7.9740    -4.4250 ho         1 VKV       0.501000
@<TRIPOS>BOND
     1     1     2 1   
     2     1     6 1   
     3     1    15 1   
     4     1    27 1   
     5     2    26 1   
     6     2    28 1   
     7     2    29 1   
     8     3    14 1   
     9     3    30 1   
    10     3    31 1   
    11     3    32 1   
    12     4    18 1   
    13     4    22 1   
    14     4    33 1   
    15     4    34 1   
    16     5    17 1   
    17     5    24 2   
    18     5    35 1   
    19     6    10 1   
    20     7    15 1   
    21     7    36 1   
    22     8     9 1   
    23     8    10 1   
    24     8    37 1   
    25     8    38 1   
    26     9    19 1   
    27     9    39 1   
    28     9    40 1   
    29    10    41 1   
    30    10    42 1   
    31    11    12 1   
    32    11    13 1   
    33    11    43 1   
    34    11    44 1   
    35    12    14 1   
    36    12    45 1   
    37    12    46 1   
    38    13    16 1   
    39    13    47 1   
    40    13    48 1   
    41    14    49 1   
    42    14    50 1   
    43    15    51 1   
    44    15    52 1   
    45    16    22 2   
    46    16    53 1   
    47    17    21 1   
    48    17    54 1   
    49    17    55 1   
    50    18    25 2   
    51    18    56 1   
    52    19    20 1   
    53    19    57 1   
    54    19    58 1   
    55    20    21 2   
    56    20    59 1   
    57    21    60 1   
    58    22    61 1   
    59    23    24 1   
    60    23    25 1   
    61    23    62 1   
    62    23    63 1   
    63    24    64 1   
    64    25    65 1   
    65    26    66 1   
@<TRIPOS>SUBSTRUCTURE
     1 VKV         1 TEMP              0 ****  ****    0 ROOT
