@<TRIPOS>MOLECULE
VKW
   53    56     1     0     0
SMALL
abcg2


@<TRIPOS>ATOM
      1 C1           3.7190    42.3660    10.3160 cc         1 VKW      -0.199300
      2 C2           3.2550    42.7530     9.0940 cd         1 VKW       0.243900
      3 C3           5.2450    42.0760     8.7560 cc         1 VKW       0.603400
      4 C7           7.7260    40.7700     6.3520 c6         1 VKW       0.159800
      5 C8           6.4150    41.4040     6.7780 c6         1 VKW       0.189800
      6 C10         11.2720    42.0170     6.2310 c3         1 VKW      -0.078400
      7 C11         12.5090    41.3890     5.5790 c3         1 VKW      -0.126700
      8 C12         13.7200    42.2300     5.8160 cc         1 VKW       0.510900
      9 C13         14.9750    44.1640     5.0590 c          1 VKW       0.577600
     10 C14         15.8330    43.9200     6.2160 ca         1 VKW      -0.199600
     11 C15         16.9270    44.7490     6.4730 ca         1 VKW      -0.039000
     12 C16         17.7240    44.5090     7.5690 ca         1 VKW      -0.127000
     13 C19         15.5290    42.8370     7.0560 ca         1 VKW       0.195400
     14 C18         16.3620    42.6210     8.1680 ca         1 VKW       0.117000
     15 C17         17.4400    43.4390     8.4210 ca         1 VKW      -0.070000
     16 O           15.1190    45.0620     4.2530 o          1 VKW      -0.530000
     17 N4          13.9440    43.2560     4.9480 ns         1 VKW      -0.426400
     18 N5          14.4670    42.0020     6.8380 nd         1 VKW      -0.621100
     19 N3           8.8500    41.6390     6.6460 n3         1 VKW      -0.716600
     20 C6           8.8820    41.9400     8.0660 c6         1 VKW       0.159800
     21 C5           7.5830    42.5810     8.5090 c6         1 VKW       0.189800
     22 N2           6.4590    41.7020     8.1990 nh         1 VKW      -0.734300
     23 N            4.2130    42.5770     8.1300 nd         1 VKW      -0.702000
     24 N1           4.9990    41.9140    10.0830 na         1 VKW      -0.167500
     25 C4           5.8910    41.3400    11.0600 c3         1 VKW       0.057900
     26 C            3.0890    42.3780    11.6590 c3         1 VKW      -0.014800
     27 H1           2.2800    43.1550     8.8630 h4         1 VKW       0.035100
     28 H2           7.6910    40.5850     5.2760 h1         1 VKW       0.039950
     29 H3           7.8290    39.7890     6.8480 h1         1 VKW       0.039950
     30 H4           6.2350    42.3070     6.1790 h1         1 VKW       0.052950
     31 H5           5.5980    40.7090     6.5800 h1         1 VKW       0.052950
     32 H6           9.9350    40.7700     5.1220 h1         1 VKW       0.032700
     33 H7          10.3450    40.1350     6.7110 h1         1 VKW       0.032700
     34 H8          11.5150    42.2640     7.2660 hc         1 VKW       0.058200
     35 H9          11.0140    42.9520     5.7280 hc         1 VKW       0.058200
     36 H10         12.3420    41.2500     4.5080 hc         1 VKW       0.071200
     37 H11         12.6970    40.4070     6.0150 hc         1 VKW       0.071200
     38 H12         17.1390    45.5750     5.8080 ha         1 VKW       0.140000
     39 H13         18.5730    45.1440     7.7790 ha         1 VKW       0.125000
     40 H14         18.0680    43.2540     9.2820 ha         1 VKW       0.131000
     41 H15         13.3150    43.3720     4.1630 hn         1 VKW       0.332500
     42 H17          9.0650    41.0340     8.6690 h1         1 VKW       0.039950
     43 H18          9.6900    42.6400     8.2810 h1         1 VKW       0.039950
     44 H19          7.6300    42.7670     9.5820 h1         1 VKW       0.052950
     45 H20          7.4650    43.5550     8.0120 h1         1 VKW       0.052950
     46 H21          5.3280    40.7350    11.7680 h1         1 VKW       0.052700
     47 H22          6.6090    40.6980    10.5550 h1         1 VKW       0.052700
     48 H23          6.4340    42.1070    11.6130 h1         1 VKW       0.052700
     49 H24          2.9980    41.3760    12.0850 hc         1 VKW       0.045033
     50 H25          3.6530    42.9820    12.3730 hc         1 VKW       0.045033
     51 H26          2.0870    42.7970    11.5880 hc         1 VKW       0.045033
     52 C9          10.0890    41.0610     6.1650 c3         1 VKW       0.169800
     53 CL          16.0210    41.3050     9.2310 cl         1 VKW      -0.173000
@<TRIPOS>BOND
     1     1     2 2   
     2     1    24 1   
     3     1    26 1   
     4     2    23 1   
     5     2    27 1   
     6     3    22 1   
     7     3    23 2   
     8     3    24 1   
     9     4     5 1   
    10     4    19 1   
    11     4    28 1   
    12     4    29 1   
    13     5    22 1   
    14     5    30 1   
    15     5    31 1   
    16     6     7 1   
    17     6    34 1   
    18     6    35 1   
    19     6    52 1   
    20     7     8 1   
    21     7    36 1   
    22     7    37 1   
    23     8    17 1   
    24     8    18 2   
    25     9    10 1   
    26     9    16 2   
    27     9    17 1   
    28    10    11 ar  
    29    10    13 ar  
    30    11    12 ar  
    31    11    38 1   
    32    12    15 ar  
    33    12    39 1   
    34    13    14 ar  
    35    13    18 1   
    36    14    15 ar  
    37    14    53 1   
    38    15    40 1   
    39    17    41 1   
    40    19    20 1   
    41    19    52 1   
    42    20    21 1   
    43    20    42 1   
    44    20    43 1   
    45    21    22 1   
    46    21    44 1   
    47    21    45 1   
    48    24    25 1   
    49    25    46 1   
    50    25    47 1   
    51    25    48 1   
    52    26    49 1   
    53    26    50 1   
    54    26    51 1   
    55    32    52 1   
    56    33    52 1   
@<TRIPOS>SUBSTRUCTURE
     1 VKW         1 TEMP              0 ****  ****    0 ROOT
