@<TRIPOS>MOLECULE
VKW
   53    56     1     0     0
SMALL
No Charge or Current Charge


@<TRIPOS>ATOM
      1 C1           3.4730    42.1830    10.3390 cc         1 VKW      -0.199300
      2 C2           2.9520    42.4650     9.1000 cd         1 VKW       0.243900
      3 C3           5.0390    42.0830     8.7640 cc         1 VKW       0.603400
      4 C7           7.6420    40.9350     6.2540 c6         1 VKW       0.159800
      5 C8           6.2920    41.6070     6.6600 c6         1 VKW       0.189800
      6 C10         11.3640    41.9820     6.4070 c3         1 VKW      -0.078400
      7 C11         12.6350    41.3580     5.7800 c3         1 VKW      -0.126700
      8 C12         13.8700    42.1950     5.9790 cc         1 VKW       0.510900
      9 C13         15.0210    44.1030     5.0670 c          1 VKW       0.577600
     10 C14         16.0240    43.8810     6.1370 ca         1 VKW      -0.199600
     11 C15         17.1490    44.7260     6.2520 ca         1 VKW      -0.039000
     12 C16         18.0930    44.5090     7.2670 ca         1 VKW      -0.127000
     13 C19         15.8330    42.8090     7.0360 ca         1 VKW       0.195400
     14 C18         16.7980    42.6050     8.0570 ca         1 VKW       0.117000
     15 C17         17.9160    43.4490     8.1690 ca         1 VKW      -0.070000
     16 O           15.0880    44.9980     4.2390 o          1 VKW      -0.530000
     17 N4          14.0020    43.2180     5.0800 ns         1 VKW      -0.426400
     18 N5          14.7250    41.9340     6.9640 nd         1 VKW      -0.621100
     19 N3           8.8400    41.7360     6.6590 n3         1 VKW      -0.716600
     20 C6           8.7790    42.0210     8.1300 c6         1 VKW       0.159800
     21 C5           7.4430    42.7090     8.5550 c6         1 VKW       0.189800
     22 N2           6.2440    41.9310     8.1180 nh         1 VKW      -0.734300
     23 N            3.9270    42.3920     8.1290 nd         1 VKW      -0.702000
     24 N1           4.8100    41.9130    10.1210 na         1 VKW      -0.167500
     25 C4           5.7770    41.4550    11.1350 c3         1 VKW       0.057900
     26 C            2.7750    42.1390    11.6730 c3         1 VKW      -0.014800
     27 H1           1.9260    42.7150     8.8560 h4         1 VKW       0.035100
     28 H2           7.6390    40.7820     5.1650 h1         1 VKW       0.039950
     29 H3           7.6850    39.9380     6.7160 h1         1 VKW       0.039950
     30 H4           6.1610    42.5260     6.0700 h1         1 VKW       0.052950
     31 H5           5.4710    40.9280     6.3900 h1         1 VKW       0.052950
     32 H6          10.0290    40.8630     5.1490 h1         1 VKW       0.032700
     33 H7          10.2560    40.1530     6.7490 h1         1 VKW       0.032700
     34 H8          11.5450    42.1430     7.4760 hc         1 VKW       0.058200
     35 H9          11.1810    42.9660     5.9590 hc         1 VKW       0.058200
     36 H10         12.4690    41.1890     4.7090 hc         1 VKW       0.071200
     37 H11         12.7980    40.3670     6.2200 hc         1 VKW       0.071200
     38 H12         17.2940    45.5520     5.5570 ha         1 VKW       0.140000
     39 H13         18.9590    45.1620     7.3550 ha         1 VKW       0.125000
     40 H14         18.6460    43.2790     8.9560 ha         1 VKW       0.131000
     41 H15         13.2980    43.3400     4.3670 hn         1 VKW       0.332500
     42 H17          8.8880    41.0870     8.7000 h1         1 VKW       0.039950
     43 H18          9.6040    42.6810     8.4330 h1         1 VKW       0.039950
     44 H19          7.4530    42.8550     9.6430 h1         1 VKW       0.052950
     45 H20          7.4090    43.7120     8.1060 h1         1 VKW       0.052950
     46 H21          5.2670    40.8410    11.8870 h1         1 VKW       0.052700
     47 H22          6.5590    40.8490    10.6600 h1         1 VKW       0.052700
     48 H23          6.2330    42.3230    11.6260 h1         1 VKW       0.052700
     49 H24          2.7180    41.1110    12.0520 hc         1 VKW       0.045033
     50 H25          3.3060    42.7460    12.4160 hc         1 VKW       0.045033
     51 H26          1.7510    42.5240    11.5950 hc         1 VKW       0.045033
     52 C9          10.1060    41.1040     6.2180 c3         1 VKW       0.169800
     53 Cl          16.6310    41.2860     9.2230 cl         1 VKW      -0.173000
@<TRIPOS>BOND
     1     1     2 2   
     2     1    24 1   
     3     1    26 1   
     4     2    23 1   
     5     2    27 1   
     6     3    22 1   
     7     3    23 2   
     8     3    24 1   
     9     4     5 1   
    10     4    19 1   
    11     4    28 1   
    12     4    29 1   
    13     5    22 1   
    14     5    30 1   
    15     5    31 1   
    16     6     7 1   
    17     6    34 1   
    18     6    35 1   
    19     6    52 1   
    20     7     8 1   
    21     7    36 1   
    22     7    37 1   
    23     8    17 1   
    24     8    18 2   
    25     9    10 1   
    26     9    16 2   
    27     9    17 1   
    28    10    11 ar  
    29    10    13 ar  
    30    11    12 ar  
    31    11    38 1   
    32    12    15 ar  
    33    12    39 1   
    34    13    14 ar  
    35    13    18 1   
    36    14    15 ar  
    37    14    53 1   
    38    15    40 1   
    39    17    41 1   
    40    19    20 1   
    41    19    52 1   
    42    20    21 1   
    43    20    42 1   
    44    20    43 1   
    45    21    22 1   
    46    21    44 1   
    47    21    45 1   
    48    24    25 1   
    49    25    46 1   
    50    25    47 1   
    51    25    48 1   
    52    26    49 1   
    53    26    50 1   
    54    26    51 1   
    55    32    52 1   
    56    33    52 1   
@<TRIPOS>SUBSTRUCTURE
     1 VKW         1 TEMP              0 ****  ****    0 ROOT
