@<TRIPOS>MOLECULE
VKX
   32    34     1     0     0
SMALL
abcg2


@<TRIPOS>ATOM
      1 N1          28.1110    14.6430    42.1920 n7         1 VKX      -0.864400
      2 C7          26.9690    16.7120    41.4740 c5         1 VKX      -0.080400
      3 C8          27.5300    18.1200    41.3220 c5         1 VKX      -0.168400
      4 C9          28.9400    17.9920    41.8610 c          1 VKX       0.562000
      5 C1          29.3040    15.7170    37.6810 ca         1 VKX      -0.117500
      6 C5          27.7750    13.9130    38.0710 ca         1 VKX      -0.117500
      7 C6          28.2070    15.8000    41.3480 c5         1 VKX       0.396900
      8 C4          27.6800    14.2840    39.4040 ca         1 VKX      -0.092500
      9 C3          28.3960    15.3750    39.8940 ca         1 VKX      -0.088300
     10 C2          29.2090    16.0860    39.0180 ca         1 VKX      -0.092500
     11 O           29.6560    18.8880    42.2760 o          1 VKX      -0.550000
     12 N           29.2770    16.6910    41.8030 n          1 VKX      -0.447800
     13 C10         30.4780    16.1300    42.3890 c6         1 VKX       0.109000
     14 C11         30.6200    14.6760    41.9650 c6         1 VKX      -0.121400
     15 C12         29.3510    13.8610    42.2570 c6         1 VKX       0.165800
     16 C           28.5880    14.6300    37.2020 ca         1 VKX      -0.105000
     17 H1          27.8460    14.9410    43.1220 hn         1 VKX       0.421000
     18 H3          26.1960    16.4610    40.7490 hc         1 VKX       0.063200
     19 H4          26.5440    16.5920    42.4730 hc         1 VKX       0.063200
     20 H5          26.9690    18.8740    41.8730 hc         1 VKX       0.078700
     21 H6          27.5680    18.4420    40.2780 hc         1 VKX       0.078700
     22 H8          27.2140    13.0610    37.7100 ha         1 VKX       0.113500
     23 H9          27.0460    13.7200    40.0750 ha         1 VKX       0.124500
     24 H10         29.7870    16.9300    39.3720 ha         1 VKX       0.124500
     25 H11         31.3490    16.7050    42.0710 h1         1 VKX       0.050200
     26 H12         30.4250    16.2030    43.4800 h1         1 VKX       0.050200
     27 H13         30.8600    14.6350    40.9020 hc         1 VKX       0.058200
     28 H14         31.4700    14.2380    42.4900 hc         1 VKX       0.058200
     29 H15         29.4050    13.4310    43.2570 h1         1 VKX       0.051700
     30 H16         29.2970    13.0220    41.5590 h1         1 VKX       0.051700
     31 H17         28.6630    14.3430    36.1610 ha         1 VKX       0.113000
     32 H7          29.9440    16.2830    37.0160 ha         1 VKX       0.113500
@<TRIPOS>BOND
     1     1     7 1   
     2     1    15 1   
     3     1    17 1   
     4     2     3 1   
     5     2     7 1   
     6     2    18 1   
     7     2    19 1   
     8     3     4 1   
     9     3    20 1   
    10     3    21 1   
    11     4    11 2   
    12     4    12 1   
    13     5    10 ar  
    14     5    16 ar  
    15     5    32 1   
    16     6     8 ar  
    17     6    16 ar  
    18     6    22 1   
    19     7     9 1   
    20     7    12 1   
    21     8     9 ar  
    22     8    23 1   
    23     9    10 ar  
    24    10    24 1   
    25    12    13 1   
    26    13    14 1   
    27    13    25 1   
    28    13    26 1   
    29    14    15 1   
    30    14    27 1   
    31    14    28 1   
    32    15    29 1   
    33    15    30 1   
    34    16    31 1   
@<TRIPOS>SUBSTRUCTURE
     1 VKX         1 TEMP              0 ****  ****    0 ROOT
