@<TRIPOS>MOLECULE
VKX
   32    34     1     0     0
SMALL
No Charge or Current Charge


@<TRIPOS>ATOM
      1 N1          28.1900    14.6960    42.3280 n7         1 VKX      -0.864400
      2 C7          26.9110    16.6710    41.5100 c5         1 VKX      -0.080400
      3 C8          27.4970    18.0910    41.2690 c5         1 VKX      -0.168400
      4 C9          28.8620    18.0130    41.9490 c          1 VKX       0.562000
      5 C1          29.3690    15.6440    37.6360 ca         1 VKX      -0.117500
      6 C5          27.6450    13.9720    37.9830 ca         1 VKX      -0.117500
      7 C6          28.1950    15.7890    41.3390 c5         1 VKX       0.396900
      8 C4          27.5410    14.3610    39.3300 ca         1 VKX      -0.092500
      9 C3          28.3480    15.3950    39.8530 ca         1 VKX      -0.088300
     10 C2          29.2660    16.0340    38.9830 ca         1 VKX      -0.092500
     11 O           29.4110    18.8270    42.6780 o          1 VKX      -0.550000
     12 N           29.2650    16.6900    41.7970 n          1 VKX      -0.447800
     13 C10         30.5150    16.1680    42.3980 c6         1 VKX       0.109000
     14 C11         30.7070    14.6780    42.0460 c6         1 VKX      -0.121400
     15 C12         29.4140    13.8530    42.2770 c6         1 VKX       0.165800
     16 C           28.5600    14.6140    37.1350 ca         1 VKX      -0.105000
     17 H1          28.1610    15.1480    43.2450 hn         1 VKX       0.421000
     18 H3          26.1100    16.4110    40.8100 hc         1 VKX       0.063200
     19 H4          26.4970    16.5940    42.5220 hc         1 VKX       0.063200
     20 H5          26.8960    18.9220    41.6520 hc         1 VKX       0.078700
     21 H6          27.6600    18.2150    40.1930 hc         1 VKX       0.078700
     22 H8          27.0160    13.1720    37.5990 ha         1 VKX       0.113500
     23 H9          26.8290    13.8540    39.9770 ha         1 VKX       0.124500
     24 H10         29.9060    16.8360    39.3400 ha         1 VKX       0.124500
     25 H11         31.3740    16.7520    42.0380 h1         1 VKX       0.050200
     26 H12         30.4620    16.2840    43.4900 h1         1 VKX       0.050200
     27 H13         30.9900    14.6010    40.9880 hc         1 VKX       0.058200
     28 H14         31.5420    14.2510    42.6180 hc         1 VKX       0.058200
     29 H15         29.4970    13.2930    43.2210 h1         1 VKX       0.051700
     30 H16         29.3190    13.1100    41.4700 h1         1 VKX       0.051700
     31 H17         28.6410    14.3130    36.0920 ha         1 VKX       0.113000
     32 H7          30.0790    16.1440    36.9800 ha         1 VKX       0.113500
@<TRIPOS>BOND
     1     1     7 1   
     2     1    15 1   
     3     1    17 1   
     4     2     3 1   
     5     2     7 1   
     6     2    18 1   
     7     2    19 1   
     8     3     4 1   
     9     3    20 1   
    10     3    21 1   
    11     4    11 2   
    12     4    12 1   
    13     5    10 ar  
    14     5    16 ar  
    15     5    32 1   
    16     6     8 ar  
    17     6    16 ar  
    18     6    22 1   
    19     7     9 1   
    20     7    12 1   
    21     8     9 ar  
    22     8    23 1   
    23     9    10 ar  
    24    10    24 1   
    25    12    13 1   
    26    13    14 1   
    27    13    25 1   
    28    13    26 1   
    29    14    15 1   
    30    14    27 1   
    31    14    28 1   
    32    15    29 1   
    33    15    30 1   
    34    16    31 1   
@<TRIPOS>SUBSTRUCTURE
     1 VKX         1 TEMP              0 ****  ****    0 ROOT
