@<TRIPOS>MOLECULE
VL0
   43    45     1     0     0
SMALL
abcg2


@<TRIPOS>ATOM
      1 O1          -5.6500    -6.6780    -9.9870 o          1 VL0      -0.709000
      2 C1          -4.7960    -7.5800    -9.8750 c          1 VL0       0.727600
      3 O2          -3.6510    -7.6010   -10.3490 o          1 VL0      -0.709000
      4 C2          -5.2520    -8.8130    -9.0890 ca         1 VL0      -0.188600
      5 C3          -6.5990    -9.1490    -9.1300 ca         1 VL0       0.037000
      6 C4          -7.0890   -10.2680    -8.4750 ca         1 VL0      -0.336500
      7 C5          -6.2410   -11.0770    -7.7290 ca         1 VL0       0.007000
      8 C6          -4.9050   -10.7520    -7.6600 ca         1 VL0      -0.269000
      9 C7          -4.3970    -9.6330    -8.3330 ca         1 VL0       0.210100
     10 O3          -3.1010    -9.3190    -8.2320 oh         1 VL0      -0.480100
     11 S1          -8.8040   -10.6320    -8.5090 sy         1 VL0       1.128600
     12 O4          -9.4090    -9.9310    -9.6340 o          1 VL0      -0.561000
     13 O5          -9.0200   -12.0660    -8.3890 o          1 VL0      -0.561000
     14 N1          -9.3170    -9.9930    -7.0410 nu         1 VL0      -0.867100
     15 C8          -9.2340    -8.5760    -6.9160 ca         1 VL0       0.219000
     16 C9          -8.0820    -8.0200    -6.3760 ca         1 VL0      -0.096500
     17 C10         -7.9560    -6.6420    -6.2810 ca         1 VL0      -0.092500
     18 C11         -8.9760    -5.7980    -6.7050 ca         1 VL0      -0.070300
     19 C12        -10.1390    -6.3700    -7.2190 ca         1 VL0      -0.092500
     20 C13        -10.2670    -7.7430    -7.3350 ca         1 VL0      -0.096500
     21 C14         -8.8270    -4.3010    -6.6410 c3         1 VL0       0.021200
     22 C15         -8.7430    -3.6730    -8.0120 ca         1 VL0      -0.095300
     23 C16         -9.5850    -2.6260    -8.3710 ca         1 VL0      -0.099500
     24 C17         -9.4990    -2.0410    -9.6300 ca         1 VL0      -0.110000
     25 C18         -8.5680    -2.5010   -10.5490 ca         1 VL0      -0.123000
     26 C19         -7.7240    -3.5500   -10.2010 ca         1 VL0      -0.110000
     27 C20         -7.8130    -4.1310    -8.9450 ca         1 VL0      -0.099500
     28 H2          -7.2680    -8.5050    -9.6850 ha         1 VL0       0.157000
     29 H3          -6.6090   -11.9480    -7.2020 ha         1 VL0       0.112000
     30 H4          -4.2370   -11.3740    -7.0740 ha         1 VL0       0.093000
     31 H5          -2.6520    -9.9430    -7.6490 ho         1 VL0       0.436000
     32 H6         -10.2360   -10.3720    -6.8190 hn         1 VL0       0.464000
     33 H7          -7.2840    -8.6650    -6.0330 ha         1 VL0       0.122000
     34 H8          -7.0470    -6.2190    -5.8700 ha         1 VL0       0.115000
     35 H9         -10.9500    -5.7310    -7.5510 ha         1 VL0       0.115000
     36 H10        -11.1710    -8.1710    -7.7500 ha         1 VL0       0.122000
     37 H11         -7.9290    -4.0520    -6.0700 hc         1 VL0       0.044700
     38 H12         -9.6680    -3.8670    -6.0970 hc         1 VL0       0.044700
     39 H13        -10.3180    -2.2610    -7.6610 ha         1 VL0       0.127500
     40 H14        -10.1650    -1.2280    -9.8910 ha         1 VL0       0.117500
     41 H15         -8.5010    -2.0490   -11.5310 ha         1 VL0       0.101000
     42 H16         -6.9960    -3.9230   -10.9100 ha         1 VL0       0.117500
     43 H17         -7.1550    -4.9570    -8.6990 ha         1 VL0       0.127500
@<TRIPOS>BOND
     1     1     2 1   
     2     2     3 1   
     3     2     4 1   
     4     4     5 ar  
     5     4     9 ar  
     6     5     6 ar  
     7     5    28 1   
     8     6     7 ar  
     9     6    11 1   
    10     7     8 ar  
    11     7    29 1   
    12     8     9 ar  
    13     8    30 1   
    14     9    10 1   
    15    10    31 1   
    16    11    12 2   
    17    11    13 2   
    18    11    14 1   
    19    14    15 1   
    20    14    32 1   
    21    15    16 ar  
    22    15    20 ar  
    23    16    17 ar  
    24    16    33 1   
    25    17    18 ar  
    26    17    34 1   
    27    18    19 ar  
    28    18    21 1   
    29    19    20 ar  
    30    19    35 1   
    31    20    36 1   
    32    21    22 1   
    33    21    37 1   
    34    21    38 1   
    35    22    23 ar  
    36    22    27 ar  
    37    23    24 ar  
    38    23    39 1   
    39    24    25 ar  
    40    24    40 1   
    41    25    26 ar  
    42    25    41 1   
    43    26    27 ar  
    44    26    42 1   
    45    27    43 1   
@<TRIPOS>SUBSTRUCTURE
     1 VL0         1 TEMP              0 ****  ****    0 ROOT
