@<TRIPOS>MOLECULE
VL0
   43    45     1     0     0
SMALL
No Charge or Current Charge


@<TRIPOS>ATOM
      1 O1          -3.2720    -8.5960    -9.6290 o          1 VL0      -0.709000
      2 C1          -3.2350    -9.7420    -9.2060 c          1 VL0       0.727600
      3 O2          -2.3120   -10.5140    -9.4230 o          1 VL0      -0.709000
      4 C2          -4.4550   -10.2650    -8.5130 ca         1 VL0      -0.188600
      5 C3          -5.6930   -10.2250    -9.1840 ca         1 VL0       0.037000
      6 C4          -6.8560   -10.7150    -8.5560 ca         1 VL0      -0.336500
      7 C5          -6.7830   -11.2410    -7.2540 ca         1 VL0       0.007000
      8 C6          -5.5510   -11.2690    -6.5830 ca         1 VL0      -0.269000
      9 C7          -4.3910   -10.7830    -7.2060 ca         1 VL0       0.210100
     10 O3          -3.2200   -10.8010    -6.5110 oh         1 VL0      -0.480100
     11 S1          -8.4350   -10.6590    -9.4070 sy         1 VL0       1.128600
     12 O4          -8.2750   -10.1500   -10.7720 o          1 VL0      -0.561000
     13 O5          -9.1950   -11.8750    -9.1100 o          1 VL0      -0.561000
     14 N1          -9.3290    -9.4820    -8.6070 nu         1 VL0      -0.867100
     15 C8          -9.0000    -8.1660    -8.2760 ca         1 VL0       0.219000
     16 C9          -7.9780    -7.4520    -8.9340 ca         1 VL0      -0.096500
     17 C10         -7.6780    -6.1290    -8.5620 ca         1 VL0      -0.092500
     18 C11         -8.3980    -5.5000    -7.5290 ca         1 VL0      -0.070300
     19 C12         -9.4250    -6.2070    -6.8780 ca         1 VL0      -0.092500
     20 C13         -9.7220    -7.5300    -7.2510 ca         1 VL0      -0.096500
     21 C14         -8.0790    -4.0650    -7.1310 c3         1 VL0       0.021200
     22 C15         -8.9220    -3.0680    -7.9160 ca         1 VL0      -0.095300
     23 C16        -10.1650    -2.6350    -7.4120 ca         1 VL0      -0.099500
     24 C17        -10.9450    -1.7190    -8.1390 ca         1 VL0      -0.110000
     25 C18        -10.4880    -1.2320    -9.3750 ca         1 VL0      -0.123000
     26 C19         -9.2510    -1.6610    -9.8840 ca         1 VL0      -0.110000
     27 C20         -8.4700    -2.5770    -9.1570 ca         1 VL0      -0.099500
     28 H2          -5.7390    -9.8180   -10.1930 ha         1 VL0       0.157000
     29 H3          -7.6770   -11.6170    -6.7590 ha         1 VL0       0.112000
     30 H4          -5.5060   -11.6680    -5.5730 ha         1 VL0       0.093000
     31 H5          -3.3980   -11.2010    -5.6350 ho         1 VL0       0.436000
     32 H6          -9.9860    -9.9700    -8.0150 hn         1 VL0       0.464000
     33 H7          -7.4120    -7.9070    -9.7390 ha         1 VL0       0.122000
     34 H8          -6.8870    -5.5930    -9.0810 ha         1 VL0       0.115000
     35 H9          -9.9950    -5.7320    -6.0820 ha         1 VL0       0.115000
     36 H10        -10.5180    -8.0620    -6.7370 ha         1 VL0       0.122000
     37 H11         -7.0130    -3.8600    -7.2890 hc         1 VL0       0.044700
     38 H12         -8.2420    -3.9300    -6.0550 hc         1 VL0       0.044700
     39 H13        -10.5270    -3.0100    -6.4570 ha         1 VL0       0.127500
     40 H14        -11.9040    -1.3890    -7.7450 ha         1 VL0       0.117500
     41 H15        -11.0920    -0.5240    -9.9380 ha         1 VL0       0.101000
     42 H16         -8.8970    -1.2860   -10.8420 ha         1 VL0       0.117500
     43 H17         -7.5150    -2.9060    -9.5600 ha         1 VL0       0.127500
@<TRIPOS>BOND
     1     1     2 1   
     2     2     3 1   
     3     2     4 1   
     4     4     5 ar  
     5     4     9 ar  
     6     5     6 ar  
     7     5    28 1   
     8     6     7 ar  
     9     6    11 1   
    10     7     8 ar  
    11     7    29 1   
    12     8     9 ar  
    13     8    30 1   
    14     9    10 1   
    15    10    31 1   
    16    11    12 2   
    17    11    13 2   
    18    11    14 1   
    19    14    15 1   
    20    14    32 1   
    21    15    16 ar  
    22    15    20 ar  
    23    16    17 ar  
    24    16    33 1   
    25    17    18 ar  
    26    17    34 1   
    27    18    19 ar  
    28    18    21 1   
    29    19    20 ar  
    30    19    35 1   
    31    20    36 1   
    32    21    22 1   
    33    21    37 1   
    34    21    38 1   
    35    22    23 ar  
    36    22    27 ar  
    37    23    24 ar  
    38    23    39 1   
    39    24    25 ar  
    40    24    40 1   
    41    25    26 ar  
    42    25    41 1   
    43    26    27 ar  
    44    26    42 1   
    45    27    43 1   
@<TRIPOS>SUBSTRUCTURE
     1 VL0         1 TEMP              0 ****  ****    0 ROOT
