@<TRIPOS>MOLECULE
VL1
   86    91     1     0     0
SMALL
abcg2


@<TRIPOS>ATOM
      1 C10         36.7540    -3.8110    18.3210 c          1 VL1       0.618700
      2 C13         35.0480    -5.0740    19.6230 ca         1 VL1      -0.045000
      3 C15         32.8700    -4.1560    20.1460 ca         1 VL1       0.012000
      4 C17         34.5130    -2.8420    18.9740 ca         1 VL1      -0.045000
      5 C22         28.1230    -3.7310    21.3490 ca         1 VL1       0.011000
      6 C24         26.4440    -2.0040    21.3750 ca         1 VL1      -0.032500
      7 C26         25.7870    -4.2850    21.6350 ca         1 VL1      -0.032500
      8 C28         24.0120    -2.5300    21.6500 cp         1 VL1       0.291500
      9 C01         39.5830     1.6910    18.6420 c3         1 VL1       0.155600
     10 C03         38.9310     1.5560    16.3550 c3         1 VL1       0.155600
     11 C04         38.1840    -0.1640    17.8790 c6         1 VL1       0.188500
     12 C05         39.3260    -1.1860    17.8830 c6         1 VL1      -0.103900
     13 C06         38.7570    -2.5970    17.7420 c6         1 VL1       0.102500
     14 C08         37.4180    -1.8010    19.6410 c6         1 VL1       0.102500
     15 C09         37.3130    -0.3670    19.1300 c6         1 VL1      -0.103900
     16 C12         35.4340    -3.8820    19.0160 ca         1 VL1      -0.172600
     17 C14         33.7980    -5.2040    20.1930 ca         1 VL1      -0.164000
     18 C16         33.2450    -2.9630    19.5230 ca         1 VL1      -0.164000
     19 C19         30.5130    -3.6030    20.7090 c          1 VL1       0.670100
     20 C23         27.7740    -2.3790    21.2760 ca         1 VL1      -0.168500
     21 C25         25.4270    -2.9400    21.5500 cp         1 VL1      -0.186500
     22 C27         27.1060    -4.6730    21.5370 ca         1 VL1      -0.168500
     23 C30         22.4410    -0.9260    21.6910 ca         1 VL1       0.446400
     24 C32         21.8430    -3.0880    21.8820 ca         1 VL1       0.446400
     25 C35         21.1910    -5.4370    22.2070 c6         1 VL1       0.194050
     26 C36         20.6920    -5.8780    23.5730 c6         1 VL1       0.135600
     27 C38         19.0520    -4.2190    23.5840 c6         1 VL1       0.135600
     28 C39         19.4920    -3.7160    22.2190 c6         1 VL1       0.194050
     29 C41         23.0670     1.4260    21.4080 c6         1 VL1       0.194050
     30 C42         22.3960     2.5630    20.6600 c6         1 VL1       0.135600
     31 C44         20.6820     2.2400    22.2700 c6         1 VL1       0.135600
     32 C45         20.7170     0.7890    21.8330 c6         1 VL1       0.194050
     33 N02         38.5690     1.2310    17.7170 n3         1 VL1      -0.722600
     34 N07         37.5380    -2.7370    18.5350 n          1 VL1      -0.409800
     35 N21         29.4250    -4.2170    21.2780 ns         1 VL1      -0.161000
     36 N29         23.7440    -1.2340    21.5970 nb         1 VL1      -0.324500
     37 N31         21.4590    -1.8140    21.8230 nb         1 VL1      -0.361000
     38 N33         23.1180    -3.4950    21.7950 nb         1 VL1      -0.324500
     39 N34         20.8930    -4.0300    22.0180 nh         1 VL1      -0.773800
     40 N40         22.0980     0.3720    21.6540 nh         1 VL1      -0.773800
     41 O11         37.0820    -4.7100    17.5540 o          1 VL1      -0.602100
     42 O20         30.4850    -2.4810    20.2420 o          1 VL1      -0.596100
     43 O37         19.3200    -5.5950    23.7410 os         1 VL1      -0.450500
     44 O43         21.2910     3.1160    21.3460 os         1 VL1      -0.450500
     45 H131        35.7320    -5.9120    19.6630 ha         1 VL1       0.125000
     46 H171        34.7720    -1.9080    18.4890 ha         1 VL1       0.125000
     47 H241        26.1950    -0.9530    21.3160 ha         1 VL1       0.135000
     48 H261        25.0230    -5.0380    21.7750 ha         1 VL1       0.135000
     49 H012        39.3120     1.4570    19.6720 h1         1 VL1       0.029867
     50 H013        40.5810     1.2670    18.4570 h1         1 VL1       0.029867
     51 H011        39.6740     2.7760    18.5720 h1         1 VL1       0.029867
     52 H032        39.0870     2.6320    16.2610 h1         1 VL1       0.029867
     53 H033        39.8500     1.0610    16.0060 h1         1 VL1       0.029867
     54 H031        38.1250     1.2780    15.6750 h1         1 VL1       0.029867
     55 H041        37.5570    -0.3980    17.0110 h1         1 VL1       0.061700
     56 H052        39.9170    -1.1000    18.7990 hc         1 VL1       0.051700
     57 H051        40.0150    -1.0160    17.0540 hc         1 VL1       0.051700
     58 H062        38.5120    -2.7860    16.6960 h1         1 VL1       0.051700
     59 H061        39.5010    -3.3420    18.0390 h1         1 VL1       0.051700
     60 H082        36.5700    -2.0620    20.2680 h1         1 VL1       0.051700
     61 H081        38.3060    -1.9080    20.2730 h1         1 VL1       0.051700
     62 H091        37.6210     0.3020    19.9370 hc         1 VL1       0.051700
     63 H092        36.2770    -0.1160    18.8950 hc         1 VL1       0.051700
     64 H141        33.5280    -6.1390    20.6700 ha         1 VL1       0.132000
     65 H161        32.5660    -2.1300    19.4570 ha         1 VL1       0.132000
     66 H231        28.5240    -1.6170    21.1510 ha         1 VL1       0.128000
     67 H271        27.3540    -5.7260    21.5990 ha         1 VL1       0.128000
     68 H351        22.2600    -5.6070    22.1230 h1         1 VL1       0.069700
     69 H362        20.8180    -6.9560    23.6880 h1         1 VL1       0.053450
     70 H361        21.2880    -5.3810    24.3520 h1         1 VL1       0.053450
     71 H382        19.5600    -3.6340    24.3640 h1         1 VL1       0.053450
     72 H381        17.9770    -4.0800    23.7050 h1         1 VL1       0.053450
     73 H392        19.3350    -2.6440    22.1430 h1         1 VL1       0.069700
     74 H391        18.9030    -4.2010    21.4340 h1         1 VL1       0.069700
     75 H411        23.5080     1.7840    22.3440 h1         1 VL1       0.069700
     76 H412        23.8830     1.0430    20.7980 h1         1 VL1       0.069700
     77 H421        23.1270     3.3580    20.4980 h1         1 VL1       0.053450
     78 H422        22.0850     2.2010    19.6720 h1         1 VL1       0.053450
     79 H441        19.6410     2.5480    22.3810 h1         1 VL1       0.053450
     80 H442        21.1520     2.3290    23.2580 h1         1 VL1       0.053450
     81 H451        20.1410     0.6520    20.9110 h1         1 VL1       0.069700
     82 H452        20.2390     0.1820    22.6010 h1         1 VL1       0.069700
     83 H211        29.5170    -5.1930    21.5210 hn         1 VL1       0.146000
     84 N18         31.6290    -4.3970    20.7310 ns         1 VL1      -0.161000
     85 H352        20.6920    -6.0150    21.4220 h1         1 VL1       0.069700
     86 H181        31.5440    -5.3070    21.1600 hn         1 VL1       0.148000
@<TRIPOS>BOND
     1     1    16 1   
     2     1    34 1   
     3     1    41 2   
     4     2    16 ar  
     5     2    17 ar  
     6     2    45 1   
     7     3    17 ar  
     8     3    18 ar  
     9     3    84 1   
    10     4    16 ar  
    11     4    18 ar  
    12     4    46 1   
    13     5    20 ar  
    14     5    22 ar  
    15     5    35 1   
    16     6    20 ar  
    17     6    21 ar  
    18     6    47 1   
    19     7    21 ar  
    20     7    22 ar  
    21     7    48 1   
    22     8    21 1   
    23     8    36 ar  
    24     8    38 ar  
    25     9    33 1   
    26     9    49 1   
    27     9    50 1   
    28     9    51 1   
    29    10    33 1   
    30    10    52 1   
    31    10    53 1   
    32    10    54 1   
    33    11    12 1   
    34    11    15 1   
    35    11    33 1   
    36    11    55 1   
    37    12    13 1   
    38    12    56 1   
    39    12    57 1   
    40    13    34 1   
    41    13    58 1   
    42    13    59 1   
    43    14    15 1   
    44    14    34 1   
    45    14    60 1   
    46    14    61 1   
    47    15    62 1   
    48    15    63 1   
    49    17    64 1   
    50    18    65 1   
    51    19    35 1   
    52    19    42 2   
    53    19    84 1   
    54    20    66 1   
    55    22    67 1   
    56    23    36 ar  
    57    23    37 ar  
    58    23    40 1   
    59    24    37 ar  
    60    24    38 ar  
    61    24    39 1   
    62    25    26 1   
    63    25    39 1   
    64    25    68 1   
    65    25    85 1   
    66    26    43 1   
    67    26    69 1   
    68    26    70 1   
    69    27    28 1   
    70    27    43 1   
    71    27    71 1   
    72    27    72 1   
    73    28    39 1   
    74    28    73 1   
    75    28    74 1   
    76    29    30 1   
    77    29    40 1   
    78    29    75 1   
    79    29    76 1   
    80    30    44 1   
    81    30    77 1   
    82    30    78 1   
    83    31    32 1   
    84    31    44 1   
    85    31    79 1   
    86    31    80 1   
    87    32    40 1   
    88    32    81 1   
    89    32    82 1   
    90    35    83 1   
    91    84    86 1   
@<TRIPOS>SUBSTRUCTURE
     1 VL1         1 TEMP              0 ****  ****    0 ROOT
