@<TRIPOS>MOLECULE
VL1
   86    91     1     0     0
SMALL
No Charge or Current Charge


@<TRIPOS>ATOM
      1 C10         37.0510    -3.9530    18.4560 c          1 VL1       0.618700
      2 C13         35.0860    -5.2240    19.4090 ca         1 VL1      -0.045000
      3 C15         32.8750    -4.2130    19.6720 ca         1 VL1       0.012000
      4 C17         34.7280    -2.9210    18.7340 ca         1 VL1      -0.045000
      5 C22         27.9900    -3.6840    20.8830 ca         1 VL1       0.011000
      6 C24         26.2430    -1.9740    20.9520 ca         1 VL1      -0.032500
      7 C26         25.7320    -4.2420    21.6380 ca         1 VL1      -0.032500
      8 C28         23.8670    -2.4980    21.7320 cp         1 VL1       0.291500
      9 C01         40.0830     1.7290    18.9180 c3         1 VL1       0.155600
     10 C03         39.6000     1.6840    16.5090 c3         1 VL1       0.155600
     11 C04         38.5770    -0.0610    17.9610 c6         1 VL1       0.188500
     12 C05         39.6740    -1.1560    17.9320 c6         1 VL1      -0.103900
     13 C06         39.0250    -2.5570    17.7840 c6         1 VL1       0.102500
     14 C08         37.5320    -1.7600    19.6190 c6         1 VL1       0.102500
     15 C09         37.6470    -0.2720    19.1930 c6         1 VL1      -0.103900
     16 C12         35.6030    -4.0190    18.8930 ca         1 VL1      -0.172600
     17 C14         33.7400    -5.3150    19.8000 ca         1 VL1      -0.164000
     18 C16         33.3810    -3.0150    19.1260 ca         1 VL1      -0.164000
     19 C19         30.4590    -3.5010    20.1860 c          1 VL1       0.670100
     20 C23         27.5690    -2.3550    20.6780 ca         1 VL1      -0.168500
     21 C25         25.2880    -2.9070    21.4390 cp         1 VL1      -0.186500
     22 C27         27.0580    -4.6180    21.3630 ca         1 VL1      -0.168500
     23 C30         22.2340    -0.9020    21.7950 ca         1 VL1       0.446400
     24 C32         21.7550    -3.0240    22.4400 ca         1 VL1       0.446400
     25 C35         21.1600    -5.4550    22.9210 c6         1 VL1       0.194050
     26 C36         20.2840    -6.2840    23.9060 c6         1 VL1       0.135600
     27 C38         18.5740    -4.6040    23.9650 c6         1 VL1       0.135600
     28 C39         19.3540    -3.6790    22.9840 c6         1 VL1       0.194050
     29 C41         22.7110     1.4550    20.9140 c6         1 VL1       0.194050
     30 C42         21.8660     2.5670    20.2210 c6         1 VL1       0.135600
     31 C44         20.5120     2.4810    22.2810 c6         1 VL1       0.135600
     32 C45         20.4750     0.9470    22.0090 c6         1 VL1       0.194050
     33 N02         39.1110     1.3350    17.8640 n3         1 VL1      -0.722600
     34 N07         37.7130    -2.7050    18.4830 n          1 VL1      -0.409800
     35 N21         29.3120    -4.1450    20.6290 ns         1 VL1      -0.161000
     36 N29         23.5120    -1.2180    21.5190 nb         1 VL1      -0.324500
     37 N31         21.3170    -1.7670    22.2570 nb         1 VL1      -0.361000
     38 N33         23.0140    -3.4320    22.1940 nb         1 VL1      -0.324500
     39 N34         20.8320    -3.9820    22.9320 nh         1 VL1      -0.773800
     40 N40         21.8260     0.4360    21.5830 nh         1 VL1      -0.773800
     41 O11         37.6040    -4.9450    17.9950 o          1 VL1      -0.602100
     42 O20         30.5260    -2.3060    19.9250 o          1 VL1      -0.596100
     43 O37         18.8800    -5.9950    23.7220 os         1 VL1      -0.450500
     44 O43         20.9650     3.2560    21.1340 os         1 VL1      -0.450500
     45 H131        35.7330    -6.0930    19.5190 ha         1 VL1       0.125000
     46 H171        35.0830    -1.9940    18.2900 ha         1 VL1       0.125000
     47 H241        25.9610    -0.9370    20.7790 ha         1 VL1       0.135000
     48 H261        25.0480    -5.0020    22.0090 ha         1 VL1       0.135000
     49 H012        39.6810     1.5760    19.9270 h1         1 VL1       0.029867
     50 H013        41.0150     1.1550    18.8300 h1         1 VL1       0.029867
     51 H011        40.3360     2.7930    18.8260 h1         1 VL1       0.029867
     52 H032        39.8250     2.7570    16.4450 h1         1 VL1       0.029867
     53 H033        40.5150     1.1300    16.2610 h1         1 VL1       0.029867
     54 H031        38.8400     1.4550    15.7500 h1         1 VL1       0.029867
     55 H041        37.9440    -0.2420    17.0770 h1         1 VL1       0.061700
     56 H052        40.2610    -1.1230    18.8600 hc         1 VL1       0.051700
     57 H051        40.3810    -0.9970    17.1080 hc         1 VL1       0.051700
     58 H062        38.8580    -2.7490    16.7140 h1         1 VL1       0.051700
     59 H061        39.7280    -3.3230    18.1430 h1         1 VL1       0.051700
     60 H082        36.5870    -1.9250    20.1510 h1         1 VL1       0.051700
     61 H081        38.3270    -1.9700    20.3500 h1         1 VL1       0.051700
     62 H091        37.9730     0.3100    20.0630 hc         1 VL1       0.051700
     63 H092        36.6490     0.1090    18.9390 hc         1 VL1       0.051700
     64 H141        33.3680    -6.2530    20.2060 ha         1 VL1       0.132000
     65 H161        32.7470    -2.1470    18.9810 ha         1 VL1       0.132000
     66 H231        28.2490    -1.5960    20.3060 ha         1 VL1       0.128000
     67 H271        27.3590    -5.6510    21.5280 ha         1 VL1       0.128000
     68 H351        22.2100    -5.6280    23.2000 h1         1 VL1       0.069700
     69 H362        20.4550    -7.3580    23.7420 h1         1 VL1       0.053450
     70 H361        20.5670    -6.0510    24.9420 h1         1 VL1       0.053450
     71 H382        18.8390    -4.3520    25.0020 h1         1 VL1       0.053450
     72 H381        17.4930    -4.4460    23.8440 h1         1 VL1       0.053450
     73 H392        19.1740    -2.6430    23.3050 h1         1 VL1       0.069700
     74 H391        18.9170    -3.7850    21.9800 h1         1 VL1       0.069700
     75 H411        23.3890     1.9160    21.6470 h1         1 VL1       0.069700
     76 H412        23.3360     0.9830    20.1410 h1         1 VL1       0.069700
     77 H421        22.5300     3.3060    19.7510 h1         1 VL1       0.053450
     78 H422        21.2660     2.1080    19.4230 h1         1 VL1       0.053450
     79 H441        19.5150     2.8350    22.5780 h1         1 VL1       0.053450
     80 H442        21.1940     2.6740    23.1210 h1         1 VL1       0.053450
     81 H451        19.7210     0.7310    21.2370 h1         1 VL1       0.069700
     82 H452        20.1450     0.4530    22.9350 h1         1 VL1       0.069700
     83 H211        29.4340    -5.1330    20.8040 hn         1 VL1       0.146000
     84 N18         31.5260    -4.3840    20.0870 ns         1 VL1      -0.161000
     85 H352        21.0260    -5.8590    21.9070 h1         1 VL1       0.069700
     86 H181        31.3040    -5.3330    20.3580 hn         1 VL1       0.148000
@<TRIPOS>BOND
     1     1    16 1   
     2     1    34 1   
     3     1    41 2   
     4     2    16 ar  
     5     2    17 ar  
     6     2    45 1   
     7     3    17 ar  
     8     3    18 ar  
     9     3    84 1   
    10     4    16 ar  
    11     4    18 ar  
    12     4    46 1   
    13     5    20 ar  
    14     5    22 ar  
    15     5    35 1   
    16     6    20 ar  
    17     6    21 ar  
    18     6    47 1   
    19     7    21 ar  
    20     7    22 ar  
    21     7    48 1   
    22     8    21 1   
    23     8    36 ar  
    24     8    38 ar  
    25     9    33 1   
    26     9    49 1   
    27     9    50 1   
    28     9    51 1   
    29    10    33 1   
    30    10    52 1   
    31    10    53 1   
    32    10    54 1   
    33    11    12 1   
    34    11    15 1   
    35    11    33 1   
    36    11    55 1   
    37    12    13 1   
    38    12    56 1   
    39    12    57 1   
    40    13    34 1   
    41    13    58 1   
    42    13    59 1   
    43    14    15 1   
    44    14    34 1   
    45    14    60 1   
    46    14    61 1   
    47    15    62 1   
    48    15    63 1   
    49    17    64 1   
    50    18    65 1   
    51    19    35 1   
    52    19    42 2   
    53    19    84 1   
    54    20    66 1   
    55    22    67 1   
    56    23    36 ar  
    57    23    37 ar  
    58    23    40 1   
    59    24    37 ar  
    60    24    38 ar  
    61    24    39 1   
    62    25    26 1   
    63    25    39 1   
    64    25    68 1   
    65    25    85 1   
    66    26    43 1   
    67    26    69 1   
    68    26    70 1   
    69    27    28 1   
    70    27    43 1   
    71    27    71 1   
    72    27    72 1   
    73    28    39 1   
    74    28    73 1   
    75    28    74 1   
    76    29    30 1   
    77    29    40 1   
    78    29    75 1   
    79    29    76 1   
    80    30    44 1   
    81    30    77 1   
    82    30    78 1   
    83    31    32 1   
    84    31    44 1   
    85    31    79 1   
    86    31    80 1   
    87    32    40 1   
    88    32    81 1   
    89    32    82 1   
    90    35    83 1   
    91    84    86 1   
@<TRIPOS>SUBSTRUCTURE
     1 VL1         1 TEMP              0 ****  ****    0 ROOT
