@<TRIPOS>MOLECULE
VL4
   66    69     1     0     0
SMALL
abcg2


@<TRIPOS>ATOM
      1 C1          -6.1180    -2.5730     2.3090 ca         1 VL4      -0.134000
      2 C2          -5.2680    -3.6320     2.0240 ca         1 VL4      -0.112000
      3 C3          -6.0110    -1.3990     1.5840 ca         1 VL4      -0.073000
      4 C4          -4.3160    -3.4920     1.0280 ca         1 VL4      -0.122000
      5 C5           1.4460    -2.2540    -1.2500 ca         1 VL4      -0.129000
      6 C6           2.7740    -1.9880    -0.9590 ca         1 VL4      -0.150000
      7 C7          -5.0370    -1.2450     0.5960 ca         1 VL4      -0.108600
      8 C8           0.8510     0.0290    -0.8000 ca         1 VL4      -0.091600
      9 C9          -4.1700    -2.3050     0.3100 ca         1 VL4      -0.041300
     10 C10          0.4720    -1.2610    -1.1690 ca         1 VL4      -0.108300
     11 C11          3.1520    -0.7060    -0.5840 ca         1 VL4       0.065100
     12 C12          2.1850     0.2980    -0.5120 ca         1 VL4       0.061100
     13 C15         -5.0730     0.0570    -0.1510 c          1 VL4       0.590700
     14 C17          8.5490     0.2770     1.1230 c          1 VL4       0.716000
     15 C18         -3.4750     4.8760     0.7030 cy         1 VL4      -0.092400
     16 C19         -3.8530     4.5030    -0.7440 cy         1 VL4      -0.093900
     17 C20         -3.3760     3.3710     1.0210 cy         1 VL4      -0.093900
     18 C21          3.9040     1.8570    -0.2550 c6         1 VL4       0.115600
     19 C22         -4.2200     3.0930    -0.2380 cy         1 VL4      -0.091700
     20 C23          4.7180     0.7520     0.3880 c6         1 VL4       0.126300
     21 C24         -3.1060    -2.2570    -0.7570 c3         1 VL4       0.190100
     22 C25         -0.9560    -1.6140    -1.4870 c3         1 VL4       0.225100
     23 C26         -1.3020    -2.1770     0.8510 c3         1 VL4       0.146100
     24 C28         -3.8370     1.9180    -1.1190 c3         1 VL4       0.103000
     25 C29          6.2070     1.0250     0.3300 c3         1 VL4      -0.048400
     26 N30         -3.9060     0.6390    -0.4370 ns         1 VL4      -0.462900
     27 N31         -1.8760    -1.5870    -0.3430 n3         1 VL4      -0.689600
     28 O32         -0.4840     1.4990     0.4450 o          1 VL4      -0.723000
     29 O33          8.9390     1.3940     0.7290 o          1 VL4      -0.751000
     30 O34         -6.1580     0.5550    -0.4410 o          1 VL4      -0.665100
     31 O35         -0.5250     1.6460    -1.7910 o          1 VL4      -0.723000
     32 O36          9.2610    -0.6270     1.6070 o          1 VL4      -0.751000
     33 O37          2.5190     1.5720    -0.1760 os         1 VL4      -0.307100
     34 O38          4.4540    -0.4700    -0.2980 os         1 VL4      -0.337100
     35 H1          -6.8690    -2.6640     3.0820 ha         1 VL4       0.099000
     36 H2          -5.3490    -4.5640     2.5690 ha         1 VL4       0.098000
     37 H3          -6.6930    -0.5850     1.7880 ha         1 VL4       0.125000
     38 H4          -3.6630    -4.3250     0.7940 ha         1 VL4       0.106000
     39 H5           1.1590    -3.2590    -1.5330 ha         1 VL4       0.082000
     40 H6           3.5230    -2.7670    -1.0180 ha         1 VL4       0.108000
     41 H241        -2.8950    -3.2930    -1.0670 h1         1 VL4       0.034700
     42 H242        -3.4810    -1.7450    -1.6470 h1         1 VL4       0.034700
     43 H251        -1.3560    -0.9370    -2.2470 h1         1 VL4       0.032200
     44 H252        -0.9500    -2.6200    -1.9360 h1         1 VL4       0.032200
     45 H30         -3.0340     0.1740    -0.1950 hn         1 VL4       0.380500
     46 H271         6.9230    -1.0040     0.5390 hc         1 VL4       0.025700
     47 H272         6.6690    -0.1800     2.0500 hc         1 VL4       0.025700
     48 H181        -2.5830     5.4870     0.8500 hc         1 VL4       0.029200
     49 H182        -4.3060     5.3490     1.2280 hc         1 VL4       0.029200
     50 H191        -4.6280     5.0870    -1.2410 hc         1 VL4       0.059950
     51 H192        -2.9730     4.4730    -1.3920 hc         1 VL4       0.059950
     52 H201        -2.3620     2.9880     0.9010 hc         1 VL4       0.059950
     53 H202        -3.7700     3.0280     1.9790 hc         1 VL4       0.059950
     54 H22         -5.2820     3.0490     0.0150 hc         1 VL4       0.045700
     55 H211         4.0630     2.7990     0.2690 h1         1 VL4       0.052700
     56 H212         4.2090     1.9890    -1.3000 h1         1 VL4       0.052700
     57 H23          4.4010     0.6460     1.4350 h1         1 VL4       0.049700
     58 H281        -4.4780     1.8980    -2.0060 h1         1 VL4       0.073700
     59 H282        -2.8080     2.0350    -1.4550 h1         1 VL4       0.073700
     60 H291         6.5140     1.1300    -0.7160 hc         1 VL4       0.047200
     61 H292         6.3830     1.9950     0.7980 hc         1 VL4       0.047200
     62 H261        -1.0010    -3.2270     0.7200 h1         1 VL4       0.035033
     63 H262        -0.4290    -1.6090     1.1610 h1         1 VL4       0.035033
     64 H263        -2.0200    -2.1370     1.6690 h1         1 VL4       0.035033
     65 C27          7.0440    -0.0340     1.0300 c3         1 VL4      -0.203400
     66 C16         -0.1520     1.1670    -0.7040 c          1 VL4       0.734600
@<TRIPOS>BOND
     1     1     2 ar  
     2     1     3 ar  
     3     1    35 1   
     4     2     4 ar  
     5     2    36 1   
     6     3     7 ar  
     7     3    37 1   
     8     4     9 ar  
     9     4    38 1   
    10     5     6 ar  
    11     5    10 ar  
    12     5    39 1   
    13     6    11 ar  
    14     6    40 1   
    15     7     9 ar  
    16     7    13 1   
    17     8    10 ar  
    18     8    12 ar  
    19     8    66 1   
    20     9    21 1   
    21    10    22 1   
    22    11    12 ar  
    23    11    34 1   
    24    12    33 1   
    25    13    26 1   
    26    13    30 2   
    27    14    29 1   
    28    14    32 1   
    29    14    65 1   
    30    15    16 1   
    31    15    17 1   
    32    15    48 1   
    33    15    49 1   
    34    16    19 1   
    35    16    50 1   
    36    16    51 1   
    37    17    19 1   
    38    17    52 1   
    39    17    53 1   
    40    18    20 1   
    41    18    33 1   
    42    18    55 1   
    43    18    56 1   
    44    19    24 1   
    45    19    54 1   
    46    20    25 1   
    47    20    34 1   
    48    20    57 1   
    49    21    27 1   
    50    21    41 1   
    51    21    42 1   
    52    22    27 1   
    53    22    43 1   
    54    22    44 1   
    55    23    27 1   
    56    23    62 1   
    57    23    63 1   
    58    23    64 1   
    59    24    26 1   
    60    24    58 1   
    61    24    59 1   
    62    25    60 1   
    63    25    61 1   
    64    25    65 1   
    65    26    45 1   
    66    28    66 1   
    67    31    66 1   
    68    46    65 1   
    69    47    65 1   
@<TRIPOS>SUBSTRUCTURE
     1 VL4         1 TEMP              0 ****  ****    0 ROOT
