@<TRIPOS>MOLECULE
VL4
   66    69     1     0     0
SMALL
No Charge or Current Charge


@<TRIPOS>ATOM
      1 C1          -7.2620    -1.1760     0.6550 ca         1 VL4      -0.134000
      2 C2          -6.9520    -2.4700     0.2260 ca         1 VL4      -0.112000
      3 C3          -6.3170    -0.1490     0.5210 ca         1 VL4      -0.073000
      4 C4          -5.7010    -2.7290    -0.3500 ca         1 VL4      -0.122000
      5 C5           0.9110    -1.9410     0.3230 ca         1 VL4      -0.129000
      6 C6           1.9860    -1.0860     0.6130 ca         1 VL4      -0.150000
      7 C7          -5.0380    -0.3890    -0.0380 ca         1 VL4      -0.108600
      8 C8           0.5290    -0.7740    -1.7930 ca         1 VL4      -0.091600
      9 C9          -4.7340    -1.7090    -0.4980 ca         1 VL4      -0.041300
     10 C10          0.1600    -1.7800    -0.8590 ca         1 VL4      -0.108300
     11 C11          2.3250    -0.0640    -0.2810 ca         1 VL4       0.065100
     12 C12          1.6150     0.0780    -1.5010 ca         1 VL4       0.061100
     13 C15         -4.0860     0.7970    -0.0950 c          1 VL4       0.590700
     14 C17          6.4260     3.7710     1.2270 c          1 VL4       0.716000
     15 C18         -0.3630     1.5370     3.2780 cy         1 VL4      -0.092400
     16 C19         -0.1080     2.3270     1.9530 cy         1 VL4      -0.093900
     17 C20         -1.1220     0.5090     2.3780 cy         1 VL4      -0.093900
     18 C21          3.2550     1.7080    -2.2140 c6         1 VL4       0.115600
     19 C22         -1.4790     1.7390     1.4690 cy         1 VL4      -0.091700
     20 C23          3.4620     2.0190    -0.7130 c6         1 VL4       0.126300
     21 C24         -3.4370    -2.0980    -1.2220 c3         1 VL4       0.190100
     22 C25         -1.0420    -2.6930    -1.1020 c3         1 VL4       0.225100
     23 C26         -2.4860    -3.0560     0.8730 c3         1 VL4       0.146100
     24 C28         -1.6760     1.5420    -0.0470 c3         1 VL4       0.103000
     25 C29          4.8460     2.6610    -0.4110 c3         1 VL4      -0.048400
     26 N30         -2.7400     0.5350    -0.0750 ns         1 VL4      -0.462900
     27 N31         -2.2460    -2.2530    -0.3490 n3         1 VL4      -0.689600
     28 O32         -1.0400     0.2850    -3.1910 o          1 VL4      -0.723000
     29 O33          6.4880     4.9790     1.0520 o          1 VL4      -0.751000
     30 O34         -4.5000     1.9500    -0.1400 o          1 VL4      -0.665100
     31 O35          0.0660    -1.3740    -4.0120 o          1 VL4      -0.723000
     32 O36          7.3990     3.0740     1.4710 o          1 VL4      -0.751000
     33 O37          1.9810     1.0590    -2.4060 os         1 VL4      -0.307100
     34 O38          3.3560     0.7950     0.0440 os         1 VL4      -0.337100
     35 H1          -8.2340    -0.9670     1.0970 ha         1 VL4       0.099000
     36 H2          -7.6820    -3.2690     0.3290 ha         1 VL4       0.098000
     37 H3          -6.5780     0.8470     0.8740 ha         1 VL4       0.125000
     38 H4          -5.4830    -3.7370    -0.6960 ha         1 VL4       0.106000
     39 H5           0.6470    -2.7200     1.0340 ha         1 VL4       0.082000
     40 H6           2.5410    -1.2030     1.5400 ha         1 VL4       0.108000
     41 H241        -3.6100    -3.0390    -1.7600 h1         1 VL4       0.034700
     42 H242        -3.2330    -1.3430    -1.9930 h1         1 VL4       0.034700
     43 H251        -1.2560    -2.7370    -2.1770 h1         1 VL4       0.032200
     44 H252        -0.7680    -3.7190    -0.8170 h1         1 VL4       0.032200
     45 H30         -2.4740    -0.4480    -0.0560 hn         1 VL4       0.380500
     46 H271         5.0270     2.1600     1.6570 hc         1 VL4       0.025700
     47 H272         4.2500     3.7850     1.2980 hc         1 VL4       0.025700
     48 H181         0.5290     1.1590     3.7900 hc         1 VL4       0.029200
     49 H182        -0.9940     2.0590     4.0080 hc         1 VL4       0.029200
     50 H191        -0.0590     3.4170     2.0460 hc         1 VL4       0.059950
     51 H192         0.7650     1.9860     1.3830 hc         1 VL4       0.059950
     52 H201        -0.4810    -0.2410     1.9050 hc         1 VL4       0.059950
     53 H202        -1.9690    -0.0040     2.8450 hc         1 VL4       0.059950
     54 H22         -2.3400     2.3070     1.8460 hc         1 VL4       0.045700
     55 H211         3.2850     2.6290    -2.8120 h1         1 VL4       0.052700
     56 H212         4.0520     1.0380    -2.5670 h1         1 VL4       0.052700
     57 H23          2.6700     2.7070    -0.3820 h1         1 VL4       0.049700
     58 H281        -1.9790     2.4780    -0.5340 h1         1 VL4       0.073700
     59 H282        -0.7610     1.1470    -0.5020 h1         1 VL4       0.073700
     60 H291         5.6450     1.9680    -0.7030 hc         1 VL4       0.047200
     61 H292         4.9700     3.5490    -1.0440 hc         1 VL4       0.047200
     62 H261        -2.7810    -4.0810     0.6150 h1         1 VL4       0.035033
     63 H262        -1.5820    -3.1030     1.4930 h1         1 VL4       0.035033
     64 H263        -3.2800    -2.6120     1.4880 h1         1 VL4       0.035033
     65 C27          5.0610     3.0840     1.0660 c3         1 VL4      -0.203400
     66 C16         -0.2040    -0.6040    -3.0990 c          1 VL4       0.734600
@<TRIPOS>BOND
     1     1     2 ar  
     2     1     3 ar  
     3     1    35 1   
     4     2     4 ar  
     5     2    36 1   
     6     3     7 ar  
     7     3    37 1   
     8     4     9 ar  
     9     4    38 1   
    10     5     6 ar  
    11     5    10 ar  
    12     5    39 1   
    13     6    11 ar  
    14     6    40 1   
    15     7     9 ar  
    16     7    13 1   
    17     8    10 ar  
    18     8    12 ar  
    19     8    66 1   
    20     9    21 1   
    21    10    22 1   
    22    11    12 ar  
    23    11    34 1   
    24    12    33 1   
    25    13    26 1   
    26    13    30 2   
    27    14    29 1   
    28    14    32 1   
    29    14    65 1   
    30    15    16 1   
    31    15    17 1   
    32    15    48 1   
    33    15    49 1   
    34    16    19 1   
    35    16    50 1   
    36    16    51 1   
    37    17    19 1   
    38    17    52 1   
    39    17    53 1   
    40    18    20 1   
    41    18    33 1   
    42    18    55 1   
    43    18    56 1   
    44    19    24 1   
    45    19    54 1   
    46    20    25 1   
    47    20    34 1   
    48    20    57 1   
    49    21    27 1   
    50    21    41 1   
    51    21    42 1   
    52    22    27 1   
    53    22    43 1   
    54    22    44 1   
    55    23    27 1   
    56    23    62 1   
    57    23    63 1   
    58    23    64 1   
    59    24    26 1   
    60    24    58 1   
    61    24    59 1   
    62    25    60 1   
    63    25    61 1   
    64    25    65 1   
    65    26    45 1   
    66    28    66 1   
    67    31    66 1   
    68    46    65 1   
    69    47    65 1   
@<TRIPOS>SUBSTRUCTURE
     1 VL4         1 TEMP              0 ****  ****    0 ROOT
