@<TRIPOS>MOLECULE
VL5
   77    79     1     0     0
SMALL
No Charge or Current Charge


@<TRIPOS>ATOM
      1 C10         -3.8790   -16.0620    -2.1870 ca         1 VL5      -0.184900
      2 C11         -3.0980   -16.6750    -3.1950 ca         1 VL5      -0.036000
      3 C12         -3.4670   -16.5820    -4.5490 ca         1 VL5      -0.194500
      4 C13         -4.6320   -15.8820    -4.9190 ca         1 VL5       0.180100
      5 C14         -5.4170   -15.2820    -3.9260 ca         1 VL5      -0.194500
      6 C15         -5.0520   -15.3730    -2.5720 ca         1 VL5      -0.036000
      7 C17         -4.1990   -16.1430    -7.3330 c3         1 VL5       0.164600
      8 C18         -4.9650   -15.8810    -8.6440 c3         1 VL5       0.017300
      9 C19         -3.9490   -15.8520    -9.8250 c          1 VL5       0.714000
     10 C2          -0.8090   -14.9230    -1.0570 c6         1 VL5       0.143800
     11 C24         -7.8470   -17.4390   -10.0070 ce         1 VL5       0.212300
     12 C25         -8.3240   -17.5410   -11.3940 cc         1 VL5       0.346700
     13 C27         -8.0290   -17.5950   -13.5670 cd         1 VL5       0.689300
     14 C3          -1.0880   -16.1280    -0.0910 c6         1 VL5       0.194500
     15 C30         -9.6440   -17.5460   -11.7990 cd         1 VL5      -0.262000
     16 C31         -8.4640   -18.3940    -9.0020 c          1 VL5       0.519800
     17 C34         -8.7110   -19.0020    -6.5400 c3         1 VL5      -0.037300
     18 C35         -7.8200   -18.9570    -5.2500 c3         1 VL5       0.177200
     19 C36         -7.9250   -17.5940    -4.5160 c3         1 VL5      -0.089600
     20 C37         -6.3350   -19.2290    -5.6060 c3         1 VL5      -0.089600
     21 C39        -10.1990   -18.6490    -6.2770 c          1 VL5       0.599900
     22 C4          -1.0860   -15.6450     1.3820 c6         1 VL5      -0.107400
     23 C5           0.2170   -14.8670     1.6970 c6         1 VL5      -0.109400
     24 C6           0.4350   -13.7020     0.6980 c6         1 VL5       0.147800
     25 C8          -3.5000   -16.1670    -0.7380 ce         1 VL5       0.623800
     26 N1           0.4450   -14.1920    -0.7020 n7         1 VL5      -0.845400
     27 N26         -7.4030   -17.5440   -12.4260 nc         1 VL5      -0.670000
     28 N28         -7.2820   -17.5960   -14.6760 nv         1 VL5      -1.055900
     29 N33         -8.1800   -18.1770    -7.6630 ns         1 VL5      -0.484900
     30 N7          -2.3440   -16.8420    -0.3990 nu         1 VL5      -0.909400
     31 N9          -4.3220   -15.8760     0.1920 n2         1 VL5      -0.729100
     32 O16         -5.0450   -15.7640    -6.2290 os         1 VL5      -0.350100
     33 O20         -3.3190   -14.8180   -10.0040 o          1 VL5      -0.707500
     34 O21         -3.8330   -16.8320   -10.5510 o          1 VL5      -0.707500
     35 O22         -5.9720   -16.9200    -8.7760 os         1 VL5      -0.290000
     36 O32         -9.2140   -19.3090    -9.3240 o          1 VL5      -0.587100
     37 O41         -9.6040   -19.9540    -3.7540 os         1 VL5      -0.428000
     38 O43         -9.2080   -21.4630    -1.8050 o          1 VL5      -0.706867
     39 O44        -11.2770   -20.1160    -1.9230 o          1 VL5      -0.706867
     40 O45         -9.1080   -19.0140    -1.4920 o          1 VL5      -0.706867
     41 S29         -9.7780   -17.6120   -13.5490 ss         1 VL5      -0.176400
     42 S42         -9.8160   -20.1540    -2.0990 s6         1 VL5       1.507300
     43 H1          -2.1990   -17.2300    -2.9380 ha         1 VL5       0.113000
     44 H2          -2.8390   -17.0660    -5.2900 ha         1 VL5       0.122000
     45 H3          -6.3170   -14.7420    -4.2070 ha         1 VL5       0.122000
     46 H4          -5.6830   -14.8960    -1.8260 ha         1 VL5       0.113000
     47 H5          -3.9240   -17.2040    -7.2810 h1         1 VL5       0.055200
     48 H6          -3.2780   -15.5460    -7.3210 h1         1 VL5       0.055200
     49 H7          -5.4300   -14.8880    -8.5800 h1         1 VL5       0.051700
     50 H8          -1.6560   -14.2220    -1.0200 h1         1 VL5       0.073200
     51 H9          -0.7390   -15.2960    -2.0900 h1         1 VL5       0.073200
     52 H10         -0.2570   -16.8390    -0.2070 h1         1 VL5       0.020700
     53 H11        -10.5280   -17.5160   -11.1740 h4         1 VL5       0.169000
     54 H12         -8.7170   -20.0430    -6.8860 h1         1 VL5       0.076700
     55 H13         -7.2700   -17.5760    -3.6370 hc         1 VL5       0.049533
     56 H14         -7.6260   -16.7740    -5.1790 hc         1 VL5       0.049533
     57 H15         -8.9460   -17.3920    -4.1730 hc         1 VL5       0.049533
     58 H16         -5.7170   -19.2820    -4.7010 hc         1 VL5       0.049533
     59 H17         -6.2270   -20.1770    -6.1470 hc         1 VL5       0.049533
     60 H18         -5.9230   -18.4340    -6.2370 hc         1 VL5       0.049533
     61 H19        -10.8310   -19.4910    -5.9170 h4         1 VL5       0.009200
     62 H20         -1.9490   -14.9910     1.5680 hc         1 VL5       0.055200
     63 H21         -1.1830   -16.5020     2.0620 hc         1 VL5       0.055200
     64 H22          1.0770   -15.5510     1.6590 hc         1 VL5       0.033200
     65 H23          0.1780   -14.4730     2.7220 hc         1 VL5       0.033200
     66 H24          1.3870   -13.1970     0.9210 h1         1 VL5       0.051200
     67 H25         -0.3690   -12.9590     0.8220 h1         1 VL5       0.051200
     68 H26          1.2360   -14.8400    -0.8060 hn         1 VL5       0.389000
     69 H27         -7.7350   -17.3050   -15.5340 hn         1 VL5       0.470500
     70 H28         -6.3160   -17.3200   -14.5530 hn         1 VL5       0.470500
     71 H29         -7.5350   -17.4170    -7.4630 hn         1 VL5       0.331500
     72 H30         -8.1380   -20.9650    -4.7700 hn         1 VL5       0.395000
     73 H31         -2.5330   -17.6590     0.1750 hn         1 VL5       0.429000
     74 H32         -3.8460   -16.0340     1.0850 hn         1 VL5       0.348400
     75 N23         -6.9810   -16.5160    -9.6800 n2         1 VL5      -0.193700
     76 N38         -8.2090   -20.0440    -4.3170 n7         1 VL5      -0.559900
     77 O40        -10.6970   -17.5440    -6.4920 o          1 VL5      -0.550100
@<TRIPOS>BOND
     1     1     2 ar  
     2     1     6 ar  
     3     1    25 1   
     4     2     3 ar  
     5     2    43 1   
     6     3     4 ar  
     7     3    44 1   
     8     4     5 ar  
     9     4    32 1   
    10     5     6 ar  
    11     5    45 1   
    12     6    46 1   
    13     7     8 1   
    14     7    32 1   
    15     7    47 1   
    16     7    48 1   
    17     8     9 1   
    18     8    35 1   
    19     8    49 1   
    20     9    33 1   
    21     9    34 1   
    22    10    14 1   
    23    10    26 1   
    24    10    50 1   
    25    10    51 1   
    26    11    12 1   
    27    11    16 1   
    28    11    75 2   
    29    12    15 2   
    30    12    27 1   
    31    13    27 2   
    32    13    28 1   
    33    13    41 1   
    34    14    22 1   
    35    14    30 1   
    36    14    52 1   
    37    15    41 1   
    38    15    53 1   
    39    16    29 1   
    40    16    36 2   
    41    17    18 1   
    42    17    21 1   
    43    17    29 1   
    44    17    54 1   
    45    18    19 1   
    46    18    20 1   
    47    18    76 1   
    48    19    55 1   
    49    19    56 1   
    50    19    57 1   
    51    20    58 1   
    52    20    59 1   
    53    20    60 1   
    54    21    61 1   
    55    21    77 2   
    56    22    23 1   
    57    22    62 1   
    58    22    63 1   
    59    23    24 1   
    60    23    64 1   
    61    23    65 1   
    62    24    26 1   
    63    24    66 1   
    64    24    67 1   
    65    25    30 1   
    66    25    31 2   
    67    26    68 1   
    68    28    69 1   
    69    28    70 1   
    70    29    71 1   
    71    30    73 1   
    72    31    74 1   
    73    35    75 1   
    74    37    42 1   
    75    37    76 1   
    76    38    42 1   
    77    39    42 1   
    78    40    42 1   
    79    72    76 1   
@<TRIPOS>SUBSTRUCTURE
     1 VL5         1 TEMP              0 ****  ****    0 ROOT
