@<TRIPOS>MOLECULE
VL5
   77    79     1     0     0
SMALL
bcc


@<TRIPOS>ATOM
      1 C10         -3.9880   -16.6270    -2.0880 ca         1 VL5      -0.184900
      2 C11         -3.1830   -17.3360    -2.9690 ca         1 VL5      -0.054000
      3 C12         -3.2200   -17.0980    -4.3380 ca         1 VL5      -0.212500
      4 C13         -4.0850   -16.1310    -4.8460 ca         1 VL5       0.180100
      5 C14         -4.8720   -15.3870    -3.9630 ca         1 VL5      -0.212500
      6 C15         -4.8350   -15.6470    -2.6090 ca         1 VL5      -0.054000
      7 C17         -3.5170   -16.6090    -7.1120 c3         1 VL5       0.141400
      8 C18         -4.1270   -16.3750    -8.4760 c3         1 VL5      -0.005900
      9 C19         -3.2370   -17.0320    -9.5660 c          1 VL5       0.924600
     10 C2          -0.7530   -16.2740    -1.1290 c6         1 VL5       0.143800
     11 C24         -7.2320   -17.2470    -9.6150 ce         1 VL5       0.212300
     12 C25         -8.1410   -16.9650   -10.7190 cc         1 VL5       0.412000
     13 C27         -8.7100   -15.9640   -12.5890 cd         1 VL5       0.689300
     14 C3          -1.7600   -16.1670     0.0210 c6         1 VL5       0.194500
     15 C30         -9.3690   -17.5310   -10.8520 cd         1 VL5      -0.200400
     16 C31         -7.5440   -18.4130    -8.7060 c          1 VL5       0.586800
     17 C34         -8.5580   -19.0270    -6.5510 c3         1 VL5      -0.037300
     18 C35         -7.6210   -18.9090    -5.2920 c3         1 VL5       0.177200
     19 C36         -7.5750   -17.4770    -4.7750 c3         1 VL5      -0.089600
     20 C37         -6.2150   -19.3550    -5.6870 c3         1 VL5      -0.089600
     21 C39        -10.0280   -18.8690    -6.2230 c          1 VL5       0.599900
     22 C4          -2.2440   -14.7230     0.1580 c6         1 VL5      -0.107400
     23 C5          -1.0520   -13.7820     0.3170 c6         1 VL5      -0.109400
     24 C6          -0.0400   -13.9980    -0.8050 c6         1 VL5       0.147800
     25 C8          -4.0420   -16.9780    -0.6470 ce         1 VL5       0.623800
     26 N1           0.3820   -15.3830    -0.9540 n7         1 VL5      -0.790200
     27 N26         -7.7760   -16.0790   -11.6980 nc         1 VL5      -0.670000
     28 N28         -8.6130   -15.2170   -13.7080 nv         1 VL5      -0.945500
     29 N33         -8.1880   -18.0840    -7.5780 ns         1 VL5      -0.551900
     30 N7          -2.8390   -17.1640     0.0030 nu         1 VL5      -0.854200
     31 N9          -5.1950   -17.1750    -0.1340 n2         1 VL5      -0.729100
     32 O16         -4.2410   -15.8570    -6.1530 os         1 VL5      -0.326900
     33 O20         -2.1280   -16.4840    -9.7080 o          1 VL5      -0.812800
     34 O21         -3.6970   -18.0170   -10.1600 o          1 VL5      -0.812800
     35 O22         -5.4330   -16.9300    -8.4210 os         1 VL5      -0.168300
     36 O32         -7.2150   -19.5400    -9.0290 o          1 VL5      -0.587100
     37 O41         -9.2710   -19.4840    -3.7090 os         1 VL5      -0.428000
     38 O43         -8.8370   -20.7590    -1.6120 o          1 VL5      -0.706867
     39 O44        -10.6670   -19.1170    -1.8100 o          1 VL5      -0.706867
     40 O45         -8.3220   -18.3650    -1.6620 o          1 VL5      -0.706867
     41 S29        -10.1280   -16.9410   -12.2820 ss         1 VL5      -0.321300
     42 S42         -9.2570   -19.4250    -2.0330 s6         1 VL5       1.507300
     43 H1          -2.5220   -18.1050    -2.5920 ha         1 VL5       0.131000
     44 H2          -2.5800   -17.6830    -4.9830 ha         1 VL5       0.140000
     45 H3          -5.5370   -14.6280    -4.3560 ha         1 VL5       0.140000
     46 H4          -5.4710   -15.0810    -1.9400 ha         1 VL5       0.131000
     47 H5          -3.5530   -17.6790    -6.8770 h1         1 VL5       0.055200
     48 H6          -2.4680   -16.3020    -7.1280 h1         1 VL5       0.055200
     49 H7          -4.1940   -15.2980    -8.6720 h1         1 VL5       0.051700
     50 H8          -1.2300   -16.0200    -2.0780 h1         1 VL5       0.073200
     51 H9          -0.3950   -17.3030    -1.2140 h1         1 VL5       0.073200
     52 H10         -1.1990   -16.4120     0.9290 h1         1 VL5       0.020700
     53 H11         -9.8710   -18.2340   -10.2060 h4         1 VL5       0.187000
     54 H12         -8.4310   -20.0380    -6.9500 h1         1 VL5       0.076700
     55 H13         -6.9540   -17.4320    -3.8830 hc         1 VL5       0.049533
     56 H14         -7.1240   -16.8210    -5.5190 hc         1 VL5       0.049533
     57 H15         -8.5570   -17.0770    -4.5230 hc         1 VL5       0.049533
     58 H16         -5.5420   -19.2460    -4.8360 hc         1 VL5       0.049533
     59 H17         -6.2000   -20.3990    -6.0070 hc         1 VL5       0.049533
     60 H18         -5.8230   -18.7480    -6.4990 hc         1 VL5       0.049533
     61 H19        -10.5140   -19.7620    -5.8060 h4         1 VL5       0.009200
     62 H20         -2.8130   -14.4390    -0.7330 hc         1 VL5       0.055200
     63 H21         -2.9210   -14.6340     1.0120 hc         1 VL5       0.055200
     64 H22         -0.5670   -13.9660     1.2820 hc         1 VL5       0.033200
     65 H23         -1.3880   -12.7420     0.3270 hc         1 VL5       0.033200
     66 H24          0.8450   -13.3770    -0.6470 h1         1 VL5       0.051200
     67 H25         -0.4830   -13.6800    -1.7550 h1         1 VL5       0.051200
     68 H26          0.9030   -15.6620    -0.1300 hn         1 VL5       0.333800
     69 H27         -9.4530   -14.9400   -14.1880 hn         1 VL5       0.415300
     70 H28         -7.8740   -14.5320   -13.7230 hn         1 VL5       0.415300
     71 H29         -8.4500   -17.1190    -7.4450 hn         1 VL5       0.331500
     72 H30         -8.1020   -20.7610    -4.5850 hn         1 VL5       0.339800
     73 H31         -2.9830   -17.5390     0.9300 hn         1 VL5       0.373800
     74 H32         -5.1250   -17.3780     0.8600 hn         1 VL5       0.348400
     75 N23         -6.1630   -16.5660    -9.4990 n2         1 VL5      -0.292200
     76 N38         -8.0060   -19.8170    -4.2190 n7         1 VL5      -0.504700
     77 O40        -10.6510   -17.8610    -6.4420 o          1 VL5      -0.550100
@<TRIPOS>BOND
     1     1     2 ar  
     2     1     6 ar  
     3     1    25 1   
     4     2     3 ar  
     5     2    43 1   
     6     3     4 ar  
     7     3    44 1   
     8     4     5 ar  
     9     4    32 1   
    10     5     6 ar  
    11     5    45 1   
    12     6    46 1   
    13     7     8 1   
    14     7    32 1   
    15     7    47 1   
    16     7    48 1   
    17     8     9 1   
    18     8    35 1   
    19     8    49 1   
    20     9    33 1   
    21     9    34 1   
    22    10    14 1   
    23    10    26 1   
    24    10    50 1   
    25    10    51 1   
    26    11    12 1   
    27    11    16 1   
    28    11    75 2   
    29    12    15 2   
    30    12    27 1   
    31    13    27 2   
    32    13    28 1   
    33    13    41 1   
    34    14    22 1   
    35    14    30 1   
    36    14    52 1   
    37    15    41 1   
    38    15    53 1   
    39    16    29 1   
    40    16    36 2   
    41    17    18 1   
    42    17    21 1   
    43    17    29 1   
    44    17    54 1   
    45    18    19 1   
    46    18    20 1   
    47    18    76 1   
    48    19    55 1   
    49    19    56 1   
    50    19    57 1   
    51    20    58 1   
    52    20    59 1   
    53    20    60 1   
    54    21    61 1   
    55    21    77 2   
    56    22    23 1   
    57    22    62 1   
    58    22    63 1   
    59    23    24 1   
    60    23    64 1   
    61    23    65 1   
    62    24    26 1   
    63    24    66 1   
    64    24    67 1   
    65    25    30 1   
    66    25    31 2   
    67    26    68 1   
    68    28    69 1   
    69    28    70 1   
    70    29    71 1   
    71    30    73 1   
    72    31    74 1   
    73    35    75 1   
    74    37    42 1   
    75    37    76 1   
    76    38    42 1   
    77    39    42 1   
    78    40    42 1   
    79    72    76 1   
@<TRIPOS>SUBSTRUCTURE
     1 VL5         1 TEMP              0 ****  ****    0 ROOT
