@<TRIPOS>MOLECULE
VL6
   82    85     1     0     0
SMALL
abcg2


@<TRIPOS>ATOM
      1 C4          58.3970   -79.8490    -5.0650 c3         1 VL6       0.133600
      2 C14         56.5260   -76.1000     1.5630 c5         1 VL6       0.152300
      3 C5          56.5820   -79.1030    -3.7670 cc         1 VL6       0.508300
      4 C6          55.1420   -77.9350    -2.6440 cd         1 VL6       0.195300
      5 C7          55.4870   -79.2230    -2.8730 cc         1 VL6      -0.231000
      6 C8          54.0790   -77.3040    -1.8090 c3         1 VL6      -0.174000
      7 C9          52.6720   -77.4600    -2.4250 c3         1 VL6      -0.043700
      8 C10         51.6430   -76.7410    -1.5590 c3         1 VL6      -0.094600
      9 C12         54.1530   -77.9470    -0.4250 c          1 VL6       0.624100
     10 C13         55.5320   -76.0180     0.4190 c5         1 VL6       0.108000
     11 N1          54.7930   -77.2720     0.5390 n          1 VL6      -0.388800
     12 N2          53.5530   -79.0580     3.4330 ns         1 VL6      -0.503900
     13 C3          59.1670   -81.1300    -5.2800 c3         1 VL6       0.159600
     14 N3          51.0100   -73.6460     9.8680 nc         1 VL6      -0.636000
     15 C18         52.4390   -79.2730     4.3350 c3         1 VL6       0.164000
     16 C20         52.2810   -78.1290     5.3120 ca         1 VL6      -0.090300
     17 C25         53.3830   -77.5890     5.9710 ca         1 VL6      -0.096500
     18 C24         53.2270   -76.5680     6.8920 ca         1 VL6      -0.096500
     19 C23         51.9620   -76.0500     7.1820 ca         1 VL6      -0.005000
     20 C26         51.8030   -74.9630     8.1480 cd         1 VL6      -0.182000
     21 S           52.9110   -73.6390     8.1820 ss         1 VL6      -0.033400
     22 C29         52.0370   -72.9600     9.4870 cd         1 VL6       0.413300
     23 C27         50.8580   -74.7850     9.1250 cc         1 VL6       0.300300
     24 C28         49.7360   -75.7140     9.4500 c3         1 VL6      -0.122400
     25 C22         50.8610   -76.5880     6.5160 ca         1 VL6      -0.096500
     26 C21         51.0230   -77.6160     5.5990 ca         1 VL6      -0.096500
     27 C19         52.6390   -80.5950     5.0680 c3         1 VL6      -0.104100
     28 C16         54.9150   -77.8530     1.8620 c5         1 VL6       0.034700
     29 C15         55.7090   -76.7960     2.6440 c5         1 VL6      -0.129400
     30 O5          57.6060   -76.8910     1.1240 oh         1 VL6      -0.648000
     31 O4          53.6680   -79.0520    -0.2220 o          1 VL6      -0.600100
     32 O3          55.9480   -77.1230    -3.3350 os         1 VL6      -0.073700
     33 N           56.8560   -77.8600    -4.0480 nd         1 VL6      -0.457300
     34 O2          57.2560   -80.1300    -4.2530 os         1 VL6      -0.448300
     35 O1          59.7590   -81.5960    -4.0920 os         1 VL6      -0.445000
     36 C2          59.1120   -82.6900    -3.4830 c3         1 VL6       0.163600
     37 C1          59.7480   -82.9650    -2.1440 c3         1 VL6       0.157600
     38 O           61.0810   -83.3670    -2.3160 os         1 VL6      -0.442000
     39 C           61.7300   -83.6120    -1.0960 c3         1 VL6       0.145900
     40 H13         59.0320   -79.1040    -4.5760 h1         1 VL6       0.059700
     41 H14         58.0810   -79.4420    -6.0300 h1         1 VL6       0.059700
     42 H1          56.8520   -75.1020     1.8760 h1         1 VL6       0.055700
     43 H22         51.6280   -76.9900    -4.2520 hc         1 VL6       0.041033
     44 H20         52.9310   -75.8650    -3.8790 hc         1 VL6       0.041033
     45 H21         53.2960   -77.4690    -4.5220 hc         1 VL6       0.041033
     46 H15         55.0470   -80.1210    -2.4760 ha         1 VL6       0.173000
     47 H           54.2850   -76.2320    -1.7520 hc         1 VL6       0.080700
     48 H16         52.4300   -78.5250    -2.4520 hc         1 VL6       0.072700
     49 H17         50.6450   -76.8510    -1.9850 hc         1 VL6       0.041033
     50 H19         51.6070   -77.1290    -0.5410 hc         1 VL6       0.041033
     51 H18         51.8620   -75.6720    -1.5030 hc         1 VL6       0.041033
     52 H23         56.0380   -75.9270    -0.5410 h1         1 VL6       0.069200
     53 H24         54.8720   -75.1560     0.5460 h1         1 VL6       0.069200
     54 H28         54.4000   -79.5820     3.5900 hn         1 VL6       0.312500
     55 H11         59.9610   -80.9080    -5.9990 h1         1 VL6       0.053700
     56 H12         58.5240   -81.8890    -5.7420 h1         1 VL6       0.053700
     57 H3          51.5250   -79.3440     3.7400 h1         1 VL6       0.078700
     58 H35         54.3780   -77.9670     5.7670 ha         1 VL6       0.112500
     59 H34         54.1010   -76.1800     7.4010 ha         1 VL6       0.117500
     60 H39         52.3440   -72.0270     9.9400 h5         1 VL6       0.052100
     61 H37         49.5570   -75.7250    10.5240 hc         1 VL6       0.051700
     62 H36         48.8070   -75.4010     8.9680 hc         1 VL6       0.051700
     63 H38         49.9450   -76.7320     9.1270 hc         1 VL6       0.051700
     64 H33         49.8730   -76.1830     6.6900 ha         1 VL6       0.117500
     65 H32         50.1530   -78.0120     5.0880 ha         1 VL6       0.112500
     66 H30         51.7970   -80.7860     5.7320 hc         1 VL6       0.046033
     67 H31         52.7110   -81.4230     4.3630 hc         1 VL6       0.046033
     68 H29         53.5470   -80.5760     5.6730 hc         1 VL6       0.046033
     69 H2          55.4710   -78.7940     1.8130 h1         1 VL6       0.074700
     70 H26         56.3180   -77.2350     3.4350 hc         1 VL6       0.066200
     71 H27         55.0350   -76.0710     3.1080 hc         1 VL6       0.066200
     72 H25         58.1830   -77.0630     1.8750 ho         1 VL6       0.445000
     73 H9          59.1740   -83.5850    -4.1180 h1         1 VL6       0.035700
     74 H10         58.0480   -82.4940    -3.3110 h1         1 VL6       0.035700
     75 H7          59.1580   -83.7460    -1.6430 h1         1 VL6       0.029200
     76 H8          59.6850   -82.0670    -1.5120 h1         1 VL6       0.029200
     77 H6          62.7560   -83.9080    -1.3120 h1         1 VL6       0.026367
     78 H5          61.7560   -82.7210    -0.4570 h1         1 VL6       0.026367
     79 H4          61.2510   -84.4180    -0.5260 h1         1 VL6       0.026367
     80 C11         52.6390   -76.9170    -3.8490 c3         1 VL6      -0.094600
     81 C17         53.5610   -78.0760     2.5170 c          1 VL6       0.604100
     82 O6          52.5960   -77.3690     2.2820 o          1 VL6      -0.583100
@<TRIPOS>BOND
     1     1    13 1   
     2     1    34 1   
     3     1    40 1   
     4     1    41 1   
     5     2    10 1   
     6     2    29 1   
     7     2    30 1   
     8     2    42 1   
     9     3     5 1   
    10     3    33 2   
    11     3    34 1   
    12     4     5 2   
    13     4     6 1   
    14     4    32 1   
    15     5    46 1   
    16     6     7 1   
    17     6     9 1   
    18     6    47 1   
    19     7     8 1   
    20     7    48 1   
    21     7    80 1   
    22     8    49 1   
    23     8    50 1   
    24     8    51 1   
    25     9    11 1   
    26     9    31 2   
    27    10    11 1   
    28    10    52 1   
    29    10    53 1   
    30    11    28 1   
    31    12    15 1   
    32    12    54 1   
    33    12    81 1   
    34    13    35 1   
    35    13    55 1   
    36    13    56 1   
    37    14    22 2   
    38    14    23 1   
    39    15    16 1   
    40    15    27 1   
    41    15    57 1   
    42    16    17 ar  
    43    16    26 ar  
    44    17    18 ar  
    45    17    58 1   
    46    18    19 ar  
    47    18    59 1   
    48    19    20 1   
    49    19    25 ar  
    50    20    21 1   
    51    20    23 2   
    52    21    22 1   
    53    22    60 1   
    54    23    24 1   
    55    24    61 1   
    56    24    62 1   
    57    24    63 1   
    58    25    26 ar  
    59    25    64 1   
    60    26    65 1   
    61    27    66 1   
    62    27    67 1   
    63    27    68 1   
    64    28    29 1   
    65    28    69 1   
    66    28    81 1   
    67    29    70 1   
    68    29    71 1   
    69    30    72 1   
    70    32    33 1   
    71    35    36 1   
    72    36    37 1   
    73    36    73 1   
    74    36    74 1   
    75    37    38 1   
    76    37    75 1   
    77    37    76 1   
    78    38    39 1   
    79    39    77 1   
    80    39    78 1   
    81    39    79 1   
    82    43    80 1   
    83    44    80 1   
    84    45    80 1   
    85    81    82 2   
@<TRIPOS>SUBSTRUCTURE
     1 VL6         1 TEMP              0 ****  ****    0 ROOT
