@<TRIPOS>MOLECULE
VL6
   82    85     1     0     0
SMALL
No Charge or Current Charge


@<TRIPOS>ATOM
      1 C4          59.3120   -80.0240    -4.3530 c3         1 VL6       0.133600
      2 C14         55.0310   -74.3150     0.4490 c5         1 VL6       0.152300
      3 C5          57.1280   -79.1480    -3.6850 cc         1 VL6       0.508300
      4 C6          55.3820   -78.0300    -3.0870 cd         1 VL6       0.195300
      5 C7          55.8420   -79.3040    -3.1770 cc         1 VL6      -0.231000
      6 C8          54.0600   -77.4940    -2.6070 c3         1 VL6      -0.174000
      7 C9          52.8400   -78.2130    -3.2670 c3         1 VL6      -0.043700
      8 C10         51.4910   -77.6500    -2.7570 c3         1 VL6      -0.094600
      9 C12         54.0220   -77.5670    -1.0660 c          1 VL6       0.624100
     10 C13         54.6330   -75.0970    -0.8400 c5         1 VL6       0.108000
     11 N1          54.0940   -76.3750    -0.3110 n          1 VL6      -0.388800
     12 N2          52.7890   -77.2920     3.0530 ns         1 VL6      -0.503900
     13 C3          60.0040   -81.4040    -4.5080 c3         1 VL6       0.159600
     14 N3          52.7030   -75.9950    11.7430 nc         1 VL6      -0.636000
     15 C18         51.7620   -77.8980     3.8940 c3         1 VL6       0.164000
     16 C20         52.0500   -77.6080     5.3650 ca         1 VL6      -0.090300
     17 C25         53.1900   -78.1340     6.0000 ca         1 VL6      -0.096500
     18 C24         53.4490   -77.8520     7.3520 ca         1 VL6      -0.096500
     19 C23         52.5740   -77.0430     8.1130 ca         1 VL6      -0.005000
     20 C26         52.8830   -76.7680     9.5430 cd         1 VL6      -0.182000
     21 S           54.5370   -76.9300    10.1310 ss         1 VL6      -0.033400
     22 C29         53.9930   -76.2920    11.6710 cd         1 VL6       0.413300
     23 C27         52.0770   -76.2510    10.5490 cc         1 VL6       0.300300
     24 C28         50.5950   -75.9880    10.5170 c3         1 VL6      -0.122400
     25 C22         51.4420   -76.5070     7.4590 ca         1 VL6      -0.096500
     26 C21         51.1840   -76.7860     6.1050 ca         1 VL6      -0.096500
     27 C19         51.6290   -79.4080     3.6070 c3         1 VL6      -0.104100
     28 C16         53.9580   -76.3680     1.1720 c5         1 VL6       0.034700
     29 C15         53.9820   -74.8350     1.4610 c5         1 VL6      -0.129400
     30 O5          56.3630   -74.6180     0.8760 oh         1 VL6      -0.648000
     31 O4          53.9430   -78.6500    -0.4990 o          1 VL6      -0.600100
     32 O3          56.3500   -77.1510    -3.5230 os         1 VL6      -0.073700
     33 N           57.5150   -77.9090    -3.9200 nd         1 VL6      -0.457300
     34 O2          57.9470   -80.2190    -3.9210 os         1 VL6      -0.448300
     35 O1          60.4890   -81.8930    -3.2330 os         1 VL6      -0.445000
     36 C2          59.4850   -82.2630    -2.2610 c3         1 VL6       0.163600
     37 C1          60.1790   -82.9270    -1.0480 c3         1 VL6       0.157600
     38 O           60.6500   -84.2350    -1.4310 os         1 VL6      -0.442000
     39 C           61.3200   -84.9560    -0.3830 c3         1 VL6       0.145900
     40 H13         59.8750   -79.4120    -3.6360 h1         1 VL6       0.059700
     41 H14         59.3310   -79.5120    -5.3250 h1         1 VL6       0.059700
     42 H1          54.9310   -73.2310     0.2920 h1         1 VL6       0.055700
     43 H22         52.0270   -78.6530    -5.2540 hc         1 VL6       0.041033
     44 H20         52.8960   -77.1070    -5.1620 hc         1 VL6       0.041033
     45 H21         53.7940   -78.6410    -5.2040 hc         1 VL6       0.041033
     46 H15         55.3520   -80.2320    -2.9170 ha         1 VL6       0.173000
     47 H           54.0050   -76.4450    -2.9140 hc         1 VL6       0.080700
     48 H16         52.8750   -79.2740    -2.9860 hc         1 VL6       0.072700
     49 H17         50.6500   -78.1570    -3.2460 hc         1 VL6       0.041033
     50 H19         51.3800   -77.7990    -1.6770 hc         1 VL6       0.041033
     51 H18         51.4100   -76.5760    -2.9660 hc         1 VL6       0.041033
     52 H23         55.4980   -75.2480    -1.4990 h1         1 VL6       0.069200
     53 H24         53.8600   -74.5560    -1.4020 h1         1 VL6       0.069200
     54 H28         53.6920   -77.0980     3.4680 hn         1 VL6       0.312500
     55 H11         60.8520   -81.2820    -5.1940 h1         1 VL6       0.053700
     56 H12         59.3110   -82.1190    -4.9710 h1         1 VL6       0.053700
     57 H3          50.8010   -77.4310     3.6360 h1         1 VL6       0.078700
     58 H35         53.8830   -78.7660     5.4480 ha         1 VL6       0.112500
     59 H34         54.3330   -78.2920     7.8030 ha         1 VL6       0.117500
     60 H39         54.7010   -76.1760    12.4820 h5         1 VL6       0.052100
     61 H37         50.1710   -75.9770    11.5280 hc         1 VL6       0.051700
     62 H36         50.3790   -75.0160    10.0610 hc         1 VL6       0.051700
     63 H38         50.0680   -76.7690     9.9580 hc         1 VL6       0.051700
     64 H33         50.7610   -75.8360     7.9670 ha         1 VL6       0.117500
     65 H32         50.3070   -76.3510     5.6310 ha         1 VL6       0.112500
     66 H30         50.8650   -79.8540     4.2550 hc         1 VL6       0.046033
     67 H31         51.3330   -79.5810     2.5660 hc         1 VL6       0.046033
     68 H29         52.5770   -79.9300     3.7820 hc         1 VL6       0.046033
     69 H2          54.8080   -76.8860     1.6360 h1         1 VL6       0.074700
     70 H26         54.2390   -74.6060     2.5020 hc         1 VL6       0.066200
     71 H27         53.0040   -74.3790     1.2650 hc         1 VL6       0.066200
     72 H25         56.5480   -74.0570     1.6600 ho         1 VL6       0.445000
     73 H9          58.7530   -82.9600    -2.6910 h1         1 VL6       0.035700
     74 H10         58.9470   -81.3760    -1.9030 h1         1 VL6       0.035700
     75 H7          59.4540   -83.0100    -0.2280 h1         1 VL6       0.029200
     76 H8          61.0080   -82.2920    -0.7080 h1         1 VL6       0.029200
     77 H6          61.6490   -85.9380    -0.7460 h1         1 VL6       0.026367
     78 H5          62.2040   -84.4050    -0.0350 h1         1 VL6       0.026367
     79 H4          60.6490   -85.1140     0.4710 h1         1 VL6       0.026367
     80 C11         52.8950   -78.1480    -4.8140 c3         1 VL6      -0.094600
     81 C17         52.6220   -76.9610     1.7250 c          1 VL6       0.604100
     82 O6          51.5690   -77.1240     1.1200 o          1 VL6      -0.583100
@<TRIPOS>BOND
     1     1    13 1   
     2     1    34 1   
     3     1    40 1   
     4     1    41 1   
     5     2    10 1   
     6     2    29 1   
     7     2    30 1   
     8     2    42 1   
     9     3     5 1   
    10     3    33 2   
    11     3    34 1   
    12     4     5 2   
    13     4     6 1   
    14     4    32 1   
    15     5    46 1   
    16     6     7 1   
    17     6     9 1   
    18     6    47 1   
    19     7     8 1   
    20     7    48 1   
    21     7    80 1   
    22     8    49 1   
    23     8    50 1   
    24     8    51 1   
    25     9    11 1   
    26     9    31 2   
    27    10    11 1   
    28    10    52 1   
    29    10    53 1   
    30    11    28 1   
    31    12    15 1   
    32    12    54 1   
    33    12    81 1   
    34    13    35 1   
    35    13    55 1   
    36    13    56 1   
    37    14    22 2   
    38    14    23 1   
    39    15    16 1   
    40    15    27 1   
    41    15    57 1   
    42    16    17 ar  
    43    16    26 ar  
    44    17    18 ar  
    45    17    58 1   
    46    18    19 ar  
    47    18    59 1   
    48    19    20 1   
    49    19    25 ar  
    50    20    21 1   
    51    20    23 2   
    52    21    22 1   
    53    22    60 1   
    54    23    24 1   
    55    24    61 1   
    56    24    62 1   
    57    24    63 1   
    58    25    26 ar  
    59    25    64 1   
    60    26    65 1   
    61    27    66 1   
    62    27    67 1   
    63    27    68 1   
    64    28    29 1   
    65    28    69 1   
    66    28    81 1   
    67    29    70 1   
    68    29    71 1   
    69    30    72 1   
    70    32    33 1   
    71    35    36 1   
    72    36    37 1   
    73    36    73 1   
    74    36    74 1   
    75    37    38 1   
    76    37    75 1   
    77    37    76 1   
    78    38    39 1   
    79    39    77 1   
    80    39    78 1   
    81    39    79 1   
    82    43    80 1   
    83    44    80 1   
    84    45    80 1   
    85    81    82 2   
@<TRIPOS>SUBSTRUCTURE
     1 VL6         1 TEMP              0 ****  ****    0 ROOT
