@<TRIPOS>MOLECULE
VL7
   63    62     1     0     0
SMALL
abcg2


@<TRIPOS>ATOM
      1 C10         15.1900     5.4470    -5.7920 c3         1 VL7      -0.067400
      2 C13         18.9920     5.2570    -6.5970 c3         1 VL7      -0.079400
      3 C15         21.3300     4.5450    -7.3080 c3         1 VL7      -0.042200
      4 C17         21.2380     5.4080    -9.7040 c2         1 VL7      -0.210200
      5 C20         19.7390     8.5190   -10.2410 c2         1 VL7      -0.210200
      6 C21         18.9870     8.7140    -8.9620 c3         1 VL7      -0.043200
      7 C22         17.4730     8.5860    -9.1460 c3         1 VL7      -0.070400
      8 C24         15.5150     7.0660    -9.6960 c3         1 VL7      -0.075400
      9 O01         12.3830     5.0350    -5.6040 o          1 VL7      -0.488000
     10 C02         12.7700     6.1760    -5.5900 c          1 VL7       0.592100
     11 O03         11.9620     7.2300    -5.4820 os         1 VL7      -0.445100
     12 C04         10.5450     7.0210    -5.3850 c3         1 VL7       0.175300
     13 C05          9.9700     7.0300    -6.7970 c3         1 VL7       0.156100
     14 O06          8.5820     6.8250    -6.6930 oh         1 VL7      -0.658000
     15 C07          9.9860     8.0940    -4.4760 c3         1 VL7       0.156100
     16 O08         10.1640     9.3580    -5.0630 oh         1 VL7      -0.658000
     17 C09         14.2080     6.6040    -5.6940 c3         1 VL7      -0.138400
     18 C11         16.6150     5.9340    -6.0140 c3         1 VL7      -0.080400
     19 C12         17.6280     4.7990    -6.0990 c3         1 VL7      -0.073400
     20 C14         20.0600     4.1730    -6.5370 c3         1 VL7      -0.068400
     21 C16         21.1520     4.4410    -8.7920 c2         1 VL7      -0.221200
     22 C18         21.5090     6.8680    -9.4590 c3         1 VL7      -0.010000
     23 C19         20.7950     7.7380   -10.4560 c2         1 VL7      -0.219200
     24 C23         17.0290     7.2260    -9.6690 c3         1 VL7      -0.080400
     25 C25         15.0740     5.6720   -10.1200 c3         1 VL7      -0.089100
     26 H2          14.9080     4.7890    -6.6180 hc         1 VL7       0.053700
     27 H1          15.1420     4.8400    -4.8830 hc         1 VL7       0.053700
     28 H3          19.3270     6.1250    -6.0180 hc         1 VL7       0.040200
     29 H4          18.8880     5.6080    -7.6290 hc         1 VL7       0.040200
     30 H5          22.1330     3.8620    -7.0150 hc         1 VL7       0.043700
     31 H6          21.6610     5.5450    -7.0150 hc         1 VL7       0.043700
     32 H7          21.1070     5.1270   -10.7460 ha         1 VL7       0.168000
     33 H10         19.3600     9.0880   -11.0870 ha         1 VL7       0.165000
     34 H11         19.3180     8.0050    -8.2000 hc         1 VL7       0.045200
     35 H12         19.2020     9.7130    -8.5670 hc         1 VL7       0.045200
     36 H13         17.1200     9.3700    -9.8240 hc         1 VL7       0.036200
     37 H14         16.9900     8.7780    -8.1830 hc         1 VL7       0.036200
     38 H16         15.0820     7.8130   -10.3670 hc         1 VL7       0.033700
     39 H15         15.1120     7.2850    -8.7020 hc         1 VL7       0.033700
     40 H17         10.3410     6.0550    -4.9170 h1         1 VL7       0.079700
     41 H18         10.4510     6.2340    -7.3800 h1         1 VL7       0.036200
     42 H19         10.2130     7.9810    -7.2850 h1         1 VL7       0.036200
     43 H20          8.1990     6.9040    -7.5710 ho         1 VL7       0.446000
     44 H22         10.4900     8.0190    -3.5030 h1         1 VL7       0.036200
     45 H21          8.9300     7.8630    -4.3000 h1         1 VL7       0.036200
     46 H23          9.7550    10.0150    -4.4930 ho         1 VL7       0.446000
     47 H25         14.4430     7.2400    -4.8350 hc         1 VL7       0.071700
     48 H24         14.3010     7.2560    -6.5690 hc         1 VL7       0.071700
     49 H27         16.6470     6.5210    -6.9380 hc         1 VL7       0.039700
     50 H26         16.9050     6.6220    -5.2130 hc         1 VL7       0.039700
     51 H29         17.2500     4.0210    -6.7730 hc         1 VL7       0.038700
     52 H28         17.7250     4.3250    -5.1170 hc         1 VL7       0.038700
     53 H31         19.6590     3.2350    -6.9370 hc         1 VL7       0.038700
     54 H30         20.3140     3.9720    -5.4920 hc         1 VL7       0.038700
     55 H32         20.9390     3.4380    -9.1530 ha         1 VL7       0.165000
     56 H35         22.5850     7.0530    -9.5590 hc         1 VL7       0.050700
     57 H34         21.2520     7.1420    -8.4360 hc         1 VL7       0.050700
     58 H36         21.2000     7.7050   -11.4640 ha         1 VL7       0.165000
     59 H38         17.4660     6.4380    -9.0460 hc         1 VL7       0.043200
     60 H39         17.4280     7.0620   -10.6750 hc         1 VL7       0.043200
     61 H40         13.9880     5.5830   -10.1390 hc         1 VL7       0.032367
     62 H41         15.4460     5.4260   -11.1170 hc         1 VL7       0.032367
     63 H42         15.4550     4.9150    -9.4310 hc         1 VL7       0.032367
@<TRIPOS>BOND
     1     1    17 1   
     2     1    18 1   
     3     1    26 1   
     4     1    27 1   
     5     2    19 1   
     6     2    20 1   
     7     2    28 1   
     8     2    29 1   
     9     3    20 1   
    10     3    21 1   
    11     3    30 1   
    12     3    31 1   
    13     4    21 2   
    14     4    22 1   
    15     4    32 1   
    16     5     6 1   
    17     5    23 2   
    18     5    33 1   
    19     6     7 1   
    20     6    34 1   
    21     6    35 1   
    22     7    24 1   
    23     7    36 1   
    24     7    37 1   
    25     8    24 1   
    26     8    25 1   
    27     8    38 1   
    28     8    39 1   
    29     9    10 2   
    30    10    11 1   
    31    10    17 1   
    32    11    12 1   
    33    12    13 1   
    34    12    15 1   
    35    12    40 1   
    36    13    14 1   
    37    13    41 1   
    38    13    42 1   
    39    14    43 1   
    40    15    16 1   
    41    15    44 1   
    42    15    45 1   
    43    16    46 1   
    44    17    47 1   
    45    17    48 1   
    46    18    19 1   
    47    18    49 1   
    48    18    50 1   
    49    19    51 1   
    50    19    52 1   
    51    20    53 1   
    52    20    54 1   
    53    21    55 1   
    54    22    23 1   
    55    22    56 1   
    56    22    57 1   
    57    23    58 1   
    58    24    59 1   
    59    24    60 1   
    60    25    61 1   
    61    25    62 1   
    62    25    63 1   
@<TRIPOS>SUBSTRUCTURE
     1 VL7         1 TEMP              0 ****  ****    0 ROOT
