@<TRIPOS>MOLECULE
VL7
   63    62     1     0     0
SMALL
No Charge or Current Charge


@<TRIPOS>ATOM
      1 C10         14.7520     5.4540    -6.3110 c3         1 VL7      -0.067400
      2 C13         18.6770     5.2420    -6.7630 c3         1 VL7      -0.079400
      3 C15         21.2190     4.7710    -6.6010 c3         1 VL7      -0.042200
      4 C17         21.5620     5.5330    -9.0310 c2         1 VL7      -0.210200
      5 C20         20.0520     8.5700   -10.1620 c2         1 VL7      -0.210200
      6 C21         18.9760     8.8470    -9.1230 c3         1 VL7      -0.043200
      7 C22         17.5440     8.6660    -9.6710 c3         1 VL7      -0.070400
      8 C24         15.7830     7.0330   -10.6050 c3         1 VL7      -0.075400
      9 O01         11.5720     4.9490    -6.6650 o          1 VL7      -0.488000
     10 C02         12.2600     5.9370    -6.4470 c          1 VL7       0.592100
     11 O03         11.9610     6.9070    -5.5250 os         1 VL7      -0.445100
     12 C04         10.6990     6.8430    -4.8140 c3         1 VL7       0.175300
     13 C05          9.5400     7.2560    -5.7720 c3         1 VL7       0.156100
     14 O06          8.2580     7.0640    -5.1470 oh         1 VL7      -0.658000
     15 C07         10.8110     7.7490    -3.5510 c3         1 VL7       0.156100
     16 O08         11.1010     9.1230    -3.8830 oh         1 VL7      -0.658000
     17 C09         13.6260     6.1730    -7.0930 c3         1 VL7      -0.138400
     18 C11         16.1480     5.6890    -6.9240 c3         1 VL7      -0.080400
     19 C12         17.2780     4.9440    -6.1810 c3         1 VL7      -0.073400
     20 C14         19.8020     4.4150    -6.1000 c3         1 VL7      -0.068400
     21 C16         21.3880     4.5770    -8.1000 c2         1 VL7      -0.221200
     22 C18         21.6130     7.0330    -8.8040 c3         1 VL7      -0.010000
     23 C19         21.1460     7.7950   -10.0330 c2         1 VL7      -0.219200
     24 C23         17.2630     7.2490   -10.2220 c3         1 VL7      -0.080400
     25 C25         15.4970     5.6180   -11.1420 c3         1 VL7      -0.089100
     26 H2          14.5430     4.3770    -6.2880 hc         1 VL7       0.053700
     27 H1          14.7500     5.8030    -5.2710 hc         1 VL7       0.053700
     28 H3          18.8940     6.3100    -6.6420 hc         1 VL7       0.040200
     29 H4          18.6670     5.0370    -7.8400 hc         1 VL7       0.040200
     30 H5          21.9440     4.1410    -6.0710 hc         1 VL7       0.043700
     31 H6          21.4510     5.8000    -6.3010 hc         1 VL7       0.043700
     32 H7          21.6770     5.2400   -10.0770 ha         1 VL7       0.168000
     33 H10         19.8690     9.0680   -11.1170 ha         1 VL7       0.165000
     34 H11         19.0860     8.2050    -8.2440 hc         1 VL7       0.045200
     35 H12         19.0800     9.8770    -8.7610 hc         1 VL7       0.045200
     36 H13         17.3600     9.4050   -10.4600 hc         1 VL7       0.036200
     37 H14         16.8340     8.8840    -8.8620 hc         1 VL7       0.036200
     38 H16         15.4930     7.7690   -11.3650 hc         1 VL7       0.033700
     39 H15         15.1500     7.2150    -9.7270 hc         1 VL7       0.033700
     40 H17         10.5130     5.8180    -4.4640 h1         1 VL7       0.079700
     41 H18          9.5940     6.6560    -6.6900 h1         1 VL7       0.036200
     42 H19          9.6700     8.3070    -6.0620 h1         1 VL7       0.036200
     43 H20          7.5760     7.3570    -5.7930 ho         1 VL7       0.446000
     44 H22         11.6020     7.3440    -2.9050 h1         1 VL7       0.036200
     45 H21          9.8720     7.6860    -2.9860 h1         1 VL7       0.036200
     46 H23         11.2000     9.6090    -3.0330 ho         1 VL7       0.446000
     47 H25         13.8470     7.2470    -7.0790 hc         1 VL7       0.071700
     48 H24         13.6070     5.7960    -8.1220 hc         1 VL7       0.071700
     49 H27         16.1340     5.3550    -7.9680 hc         1 VL7       0.039700
     50 H26         16.3650     6.7650    -6.9310 hc         1 VL7       0.039700
     51 H29         17.0870     3.8640    -6.2300 hc         1 VL7       0.038700
     52 H28         17.2630     5.2250    -5.1200 hc         1 VL7       0.038700
     53 H31         19.6170     3.3480    -6.2770 hc         1 VL7       0.038700
     54 H30         19.7670     4.5650    -5.0140 hc         1 VL7       0.038700
     55 H32         21.3670     3.5290    -8.4070 ha         1 VL7       0.165000
     56 H35         22.6470     7.3250    -8.5830 hc         1 VL7       0.050700
     57 H34         21.0360     7.3130    -7.9180 hc         1 VL7       0.050700
     58 H36         21.8240     7.6930   -10.8830 ha         1 VL7       0.165000
     59 H38         17.5570     6.5060    -9.4730 hc         1 VL7       0.043200
     60 H39         17.8910     7.0720   -11.1040 hc         1 VL7       0.043200
     61 H40         14.4350     5.5120   -11.3930 hc         1 VL7       0.032367
     62 H41         16.0850     5.4200   -12.0460 hc         1 VL7       0.032367
     63 H42         15.7500     4.8580   -10.3930 hc         1 VL7       0.032367
@<TRIPOS>BOND
     1     1    17 1   
     2     1    18 1   
     3     1    26 1   
     4     1    27 1   
     5     2    19 1   
     6     2    20 1   
     7     2    28 1   
     8     2    29 1   
     9     3    20 1   
    10     3    21 1   
    11     3    30 1   
    12     3    31 1   
    13     4    21 2   
    14     4    22 1   
    15     4    32 1   
    16     5     6 1   
    17     5    23 2   
    18     5    33 1   
    19     6     7 1   
    20     6    34 1   
    21     6    35 1   
    22     7    24 1   
    23     7    36 1   
    24     7    37 1   
    25     8    24 1   
    26     8    25 1   
    27     8    38 1   
    28     8    39 1   
    29     9    10 2   
    30    10    11 1   
    31    10    17 1   
    32    11    12 1   
    33    12    13 1   
    34    12    15 1   
    35    12    40 1   
    36    13    14 1   
    37    13    41 1   
    38    13    42 1   
    39    14    43 1   
    40    15    16 1   
    41    15    44 1   
    42    15    45 1   
    43    16    46 1   
    44    17    47 1   
    45    17    48 1   
    46    18    19 1   
    47    18    49 1   
    48    18    50 1   
    49    19    51 1   
    50    19    52 1   
    51    20    53 1   
    52    20    54 1   
    53    21    55 1   
    54    22    23 1   
    55    22    56 1   
    56    22    57 1   
    57    23    58 1   
    58    24    59 1   
    59    24    60 1   
    60    25    61 1   
    61    25    62 1   
    62    25    63 1   
@<TRIPOS>SUBSTRUCTURE
     1 VL7         1 TEMP              0 ****  ****    0 ROOT
