@<TRIPOS>MOLECULE
VL8
   29    29     1     0     0
SMALL
abcg2


@<TRIPOS>ATOM
      1 C7          -2.6860    13.3850   -33.7610 ca         1 VL8      -0.064000
      2 C8          -1.3650    13.0200   -34.0180 ca         1 VL8       0.084000
      3 C9          -0.5280    13.9390   -34.6580 ca         1 VL8       0.160000
      4 C1          -2.9380    18.9550   -35.9700 c3         1 VL8      -0.066400
      5 C5          -2.3230    15.5370   -34.7710 ca         1 VL8       0.138100
      6 C6          -3.1660    14.6220   -34.1410 ca         1 VL8      -0.137000
      7 C4          -2.5210    15.5490   -39.0710 c3         1 VL8       0.095300
      8 C3          -1.8720    17.1300   -37.3180 c          1 VL8       0.559100
      9 C2          -2.1380    17.6530   -35.9140 c3         1 VL8       0.089300
     10 CL1         -0.8080    11.4440   -33.5590 cl         1 VL8      -0.172000
     11 CL           1.1380    13.5500   -34.9830 cl         1 VL8      -0.173000
     12 C10         -1.0020    15.1900   -35.0330 ca         1 VL8      -0.178000
     13 O           -0.9410    17.6060   -37.9830 o          1 VL8      -0.607100
     14 N           -2.6870    16.1750   -37.7750 ns         1 VL8      -0.490900
     15 H1          -3.3280    12.6710   -33.2640 ha         1 VL8       0.135000
     16 H2          -2.4070    19.6280   -36.6470 hc         1 VL8       0.061200
     17 H3          -3.9020    18.7320   -36.4250 hc         1 VL8       0.061200
     18 H4          -4.1920    14.8980   -33.9380 ha         1 VL8       0.136000
     19 H5          -3.2390    14.7370   -39.1560 h1         1 VL8       0.044700
     20 H6          -2.6920    16.2590   -39.8860 h1         1 VL8       0.044700
     21 H7          -1.5130    15.1450   -39.1740 h1         1 VL8       0.044700
     22 H8          -1.1660    17.8560   -35.4590 h1         1 VL8       0.079700
     23 H9          -0.3200    15.8630   -35.5310 ha         1 VL8       0.146000
     24 H10         -3.6850    20.5410   -34.7090 hc         1 VL8       0.041033
     25 H11         -3.6410    18.9660   -33.9140 hc         1 VL8       0.041033
     26 H12         -2.1450    19.8710   -34.1620 hc         1 VL8       0.041033
     27 H13         -3.3990    15.8250   -37.1510 hn         1 VL8       0.326500
     28 O1          -2.8780    16.7310   -35.1130 os         1 VL8      -0.353100
     29 C           -3.1110    19.6190   -34.6080 c3         1 VL8      -0.088100
@<TRIPOS>BOND
     1     1     2 ar  
     2     1     6 ar  
     3     1    15 1   
     4     2     3 ar  
     5     2    10 1   
     6     3    11 1   
     7     3    12 ar  
     8     4     9 1   
     9     4    16 1   
    10     4    17 1   
    11     4    29 1   
    12     5     6 ar  
    13     5    12 ar  
    14     5    28 1   
    15     6    18 1   
    16     7    14 1   
    17     7    19 1   
    18     7    20 1   
    19     7    21 1   
    20     8     9 1   
    21     8    13 2   
    22     8    14 1   
    23     9    22 1   
    24     9    28 1   
    25    12    23 1   
    26    14    27 1   
    27    24    29 1   
    28    25    29 1   
    29    26    29 1   
@<TRIPOS>SUBSTRUCTURE
     1 VL8         1 TEMP              0 ****  ****    0 ROOT
