@<TRIPOS>MOLECULE
VL8
   29    29     1     0     0
SMALL
No Charge or Current Charge


@<TRIPOS>ATOM
      1 C7          -2.6980    13.3620   -33.6690 ca         1 VL8      -0.064000
      2 C8          -1.3610    13.0010   -33.9060 ca         1 VL8       0.084000
      3 C9          -0.5050    13.8940   -34.5830 ca         1 VL8       0.160000
      4 C1          -2.9430    18.9990   -35.9510 c3         1 VL8      -0.066400
      5 C5          -2.3300    15.5000   -34.7860 ca         1 VL8       0.138100
      6 C6          -3.1780    14.6080   -34.1090 ca         1 VL8      -0.137000
      7 C4          -2.5310    15.5480   -39.1980 c3         1 VL8       0.095300
      8 C3          -1.8610    17.2120   -37.4310 c          1 VL8       0.559100
      9 C2          -2.1250    17.6840   -35.9710 c3         1 VL8       0.089300
     10 Cl1         -0.7840    11.4310   -33.3450 cl         1 VL8      -0.172000
     11 Cl           1.1800    13.4760   -34.8970 cl         1 VL8      -0.173000
     12 C10         -0.9860    15.1400   -35.0210 ca         1 VL8      -0.178000
     13 O           -1.0070    17.7230   -38.1450 o          1 VL8      -0.607100
     14 N           -2.6340    16.1580   -37.8720 ns         1 VL8      -0.490900
     15 H1          -3.3600    12.6760   -33.1460 ha         1 VL8       0.135000
     16 H2          -2.4420    19.7380   -36.5880 hc         1 VL8       0.061200
     17 H3          -3.9310    18.8200   -36.3950 hc         1 VL8       0.061200
     18 H4          -4.2130    14.8860   -33.9250 ha         1 VL8       0.136000
     19 H5          -3.2630    14.7350   -39.2860 h1         1 VL8       0.044700
     20 H6          -2.7320    16.3020   -39.9700 h1         1 VL8       0.044700
     21 H7          -1.5210    15.1410   -39.3400 h1         1 VL8       0.044700
     22 H8          -1.1500    17.8840   -35.5090 h1         1 VL8       0.079700
     23 H9          -0.3000    15.8040   -35.5370 ha         1 VL8       0.146000
     24 H10         -3.6710    20.5490   -34.5980 hc         1 VL8       0.041033
     25 H11         -3.6750    18.9230   -33.8870 hc         1 VL8       0.041033
     26 H12         -2.1420    19.8060   -34.0820 hc         1 VL8       0.041033
     27 H13         -3.3070    15.7880   -37.2090 hn         1 VL8       0.326500
     28 O1          -2.8670    16.7050   -35.1950 os         1 VL8      -0.353100
     29 C           -3.1180    19.6040   -34.5410 c3         1 VL8      -0.088100
@<TRIPOS>BOND
     1     1     2 ar  
     2     1     6 ar  
     3     1    15 1   
     4     2     3 ar  
     5     2    10 1   
     6     3    11 1   
     7     3    12 ar  
     8     4     9 1   
     9     4    16 1   
    10     4    17 1   
    11     4    29 1   
    12     5     6 ar  
    13     5    12 ar  
    14     5    28 1   
    15     6    18 1   
    16     7    14 1   
    17     7    19 1   
    18     7    20 1   
    19     7    21 1   
    20     8     9 1   
    21     8    13 2   
    22     8    14 1   
    23     9    22 1   
    24     9    28 1   
    25    12    23 1   
    26    14    27 1   
    27    24    29 1   
    28    25    29 1   
    29    26    29 1   
@<TRIPOS>SUBSTRUCTURE
     1 VL8         1 TEMP              0 ****  ****    0 ROOT
