@<TRIPOS>MOLECULE
VLA
   53    55     1     0     0
SMALL
bcc


@<TRIPOS>ATOM
      1 C          -13.5630    12.4450   -18.3620 c          1 VLA       0.661700
      2 N          -14.0150    12.5330   -19.6220 ns         1 VLA      -0.504900
      3 CA         -13.2310    12.2690   -20.8100 c3         1 VLA      -0.050300
      4 O          -12.4390    12.0340   -18.0810 o          1 VLA      -0.651100
      5 CB         -13.4920    10.8630   -21.3670 c3         1 VLA      -0.048400
      6 CG         -13.0590     9.7350   -20.4430 c3         1 VLA      -0.199400
      7 CD         -13.2970     8.3140   -20.9880 c          1 VLA       0.924600
      8 OE1        -14.3070     8.1370   -21.7020 o          1 VLA      -0.871300
      9 OE2        -12.4780     7.4400   -20.6360 o          1 VLA      -0.871300
     10 C12        -14.4990    12.8720   -17.2810 ca         1 VLA      -0.149600
     11 C13        -15.8220    13.2750   -17.4840 ca         1 VLA      -0.060000
     12 C14        -16.6240    13.6710   -16.4330 ca         1 VLA      -0.216500
     13 C15        -16.1390    13.6850   -15.1160 ca         1 VLA       0.157600
     14 C16        -14.8200    13.2590   -14.9050 ca         1 VLA      -0.216500
     15 C17        -14.0310    12.8660   -15.9680 ca         1 VLA      -0.060000
     16 C2         -12.8780    19.5080   -14.2000 ca         1 VLA       0.939900
     17 C4         -14.2270    18.0140   -15.2550 ca         1 VLA       0.788200
     18 C4A        -14.5490    17.4420   -14.0030 ca         1 VLA      -0.246200
     19 C6         -15.5170    15.6930   -12.8800 c2         1 VLA       0.355300
     20 C7         -14.6760    15.9800   -11.6680 c6         1 VLA      -0.160700
     21 C8         -14.3370    17.4610   -11.5550 c6         1 VLA      -0.130700
     22 C8A        -13.9580    18.0160   -12.8950 ca         1 VLA       0.495600
     23 C9         -16.4230    14.4890   -12.8240 c3         1 VLA       0.183500
     24 CT         -13.5700    13.3280   -21.8900 c          1 VLA       0.925600
     25 N1         -13.1240    19.0490   -12.9680 nb         1 VLA      -0.825000
     26 N10        -16.9580    14.0710   -14.0880 nu         1 VLA      -0.742600
     27 N3         -13.3890    19.0430   -15.3390 nb         1 VLA      -0.861000
     28 N5         -15.4410    16.3730   -13.9500 ne         1 VLA      -0.527100
     29 O1         -12.7800    13.3900   -22.8480 o          1 VLA      -0.850800
     30 O2         -14.6110    13.9940   -21.7190 o          1 VLA      -0.850800
     31 H1         -14.8570    13.0510   -19.8250 hn         1 VLA       0.322500
     32 H2         -12.1710    12.3560   -20.5580 h1         1 VLA       0.055700
     33 H3         -14.5570    10.7670   -21.5970 hc         1 VLA       0.045200
     34 H4         -12.0040     9.8540   -20.1840 hc         1 VLA       0.017700
     35 H6         -16.2640    13.2840   -18.4730 ha         1 VLA       0.150000
     36 H7         -17.6440    13.9830   -16.6280 ha         1 VLA       0.113000
     37 H8         -14.3960    13.2400   -13.9100 ha         1 VLA       0.113000
     38 H9         -13.0150    12.5500   -15.7710 ha         1 VLA       0.150000
     39 H10        -15.1710    15.6240   -10.7630 hc         1 VLA       0.056200
     40 H11        -13.7590    15.3840   -11.7640 hc         1 VLA       0.056200
     41 H12        -13.5350    17.6260   -10.8350 hc         1 VLA       0.058700
     42 H13        -15.2070    18.0170   -11.1890 hc         1 VLA       0.058700
     43 H14        -17.2580    14.7030   -12.1520 h1         1 VLA       0.051200
     44 H15        -17.7900    14.5610   -14.3740 hn         1 VLA       0.403800
     45 H17        -11.9580    21.0390   -15.1660 hn         1 VLA       0.426800
     46 H18        -11.7660    21.0400   -13.4690 hn         1 VLA       0.426800
     47 H19        -14.4650    17.8730   -17.2740 hn         1 VLA       0.461800
     48 H20        -15.3290    16.6970   -16.3470 hn         1 VLA       0.461800
     49 H22        -12.9610    10.7780   -22.3190 hc         1 VLA       0.045200
     50 H23        -13.6060     9.8120   -19.4960 hc         1 VLA       0.017700
     51 H24        -15.8800    13.6680   -12.3420 h1         1 VLA       0.051200
     52 NA2        -11.9910    20.5250   -14.3030 nv         1 VLA      -0.947500
     53 NA4        -14.7720    17.5330   -16.3800 nv         1 VLA      -0.936500
@<TRIPOS>BOND
     1     1     2 1   
     2     1     4 2   
     3     1    10 1   
     4     2     3 1   
     5     2    31 1   
     6     3     5 1   
     7     3    24 1   
     8     3    32 1   
     9     5     6 1   
    10     5    33 1   
    11     5    49 1   
    12     6     7 1   
    13     6    34 1   
    14     6    50 1   
    15     7     8 1   
    16     7     9 1   
    17    10    11 ar  
    18    10    15 ar  
    19    11    12 ar  
    20    11    35 1   
    21    12    13 ar  
    22    12    36 1   
    23    13    14 ar  
    24    13    26 1   
    25    14    15 ar  
    26    14    37 1   
    27    15    38 1   
    28    16    25 ar  
    29    16    27 ar  
    30    16    52 1   
    31    17    18 ar  
    32    17    27 ar  
    33    17    53 1   
    34    18    22 ar  
    35    18    28 1   
    36    19    20 1   
    37    19    23 1   
    38    19    28 2   
    39    20    21 1   
    40    20    39 1   
    41    20    40 1   
    42    21    22 1   
    43    21    41 1   
    44    21    42 1   
    45    22    25 ar  
    46    23    26 1   
    47    23    43 1   
    48    23    51 1   
    49    24    29 1   
    50    24    30 1   
    51    26    44 1   
    52    45    52 1   
    53    46    52 1   
    54    47    53 1   
    55    48    53 1   
@<TRIPOS>SUBSTRUCTURE
     1 VLA         1 TEMP              0 ****  ****    0 ROOT
