@<TRIPOS>MOLECULE
VLA
   53    55     1     0     0
SMALL
No Charge or Current Charge


@<TRIPOS>ATOM
      1 C          -13.2530    11.6880   -18.1650 c          1 VLA       0.594700
      2 N          -13.3770    11.9620   -19.5120 ns         1 VLA      -0.437900
      3 CA         -12.5610    11.3670   -20.6000 c3         1 VLA      -0.050300
      4 O          -12.3930    10.9240   -17.7420 o          1 VLA      -0.651100
      5 CB         -13.2700    10.1630   -21.2770 c3         1 VLA      -0.048400
      6 CG         -13.5490     8.9600   -20.3380 c3         1 VLA      -0.199400
      7 CD         -14.1450     7.7890   -21.1400 c          1 VLA       0.714000
      8 OE1        -15.3580     7.7370   -21.2740 o          1 VLA      -0.766000
      9 OE2        -13.3780     6.9870   -21.6510 o          1 VLA      -0.766000
     10 C12        -14.2270    12.3880   -17.2370 ca         1 VLA      -0.149600
     11 C13        -15.2340    13.2630   -17.7160 ca         1 VLA      -0.042000
     12 C14        -16.1170    13.8910   -16.8200 ca         1 VLA      -0.198500
     13 C15        -16.0150    13.6650   -15.4420 ca         1 VLA       0.296000
     14 C16        -15.0290    12.7950   -14.9570 ca         1 VLA      -0.198500
     15 C17        -14.1410    12.1630   -15.8440 ca         1 VLA      -0.042000
     16 C2         -13.4080    20.4450   -13.6430 ca         1 VLA       0.413900
     17 C4         -15.5380    19.7020   -13.8200 ca         1 VLA       0.459900
     18 C4A        -15.1230    18.3910   -13.4870 ca         1 VLA      -0.115600
     19 C6         -15.5690    16.0520   -13.3110 c2         1 VLA       0.355300
     20 C7         -14.0760    15.7120   -13.3630 c6         1 VLA      -0.160700
     21 C8         -13.1840    16.8670   -12.8320 c6         1 VLA      -0.130700
     22 C8A        -13.7430    18.2300   -13.2330 ca         1 VLA       0.167300
     23 C9         -16.5520    14.8710   -13.2460 c3         1 VLA       0.183500
     24 CT         -12.1900    12.4600   -21.6500 c          1 VLA       0.715000
     25 N1         -12.8790    19.2620   -13.3070 nb         1 VLA      -0.299000
     26 N10        -16.9020    14.3050   -14.5800 nu         1 VLA      -0.936200
     27 N3         -14.6880    20.7320   -13.9050 nb         1 VLA      -0.335000
     28 N5         -16.0140    17.2800   -13.4080 ne         1 VLA      -0.527100
     29 O1         -11.0140    12.5890   -21.9600 o          1 VLA      -0.745500
     30 O2         -13.0720    13.2100   -22.0480 o          1 VLA      -0.745500
     31 H1         -14.0860    12.6330   -19.7780 hn         1 VLA       0.322500
     32 H2         -11.6160    11.0110   -20.1710 h1         1 VLA       0.055700
     33 H3         -14.2150    10.5020   -21.7200 hc         1 VLA       0.045200
     34 H4         -12.5770     8.6780   -19.9150 hc         1 VLA       0.017700
     35 H6         -15.3490    13.4690   -18.7770 ha         1 VLA       0.132000
     36 H7         -16.8810    14.5600   -17.2050 ha         1 VLA       0.095000
     37 H8         -14.9450    12.5970   -13.8930 ha         1 VLA       0.095000
     38 H9         -13.3830    11.4920   -15.4430 ha         1 VLA       0.132000
     39 H10        -13.8710    14.7970   -12.7930 hc         1 VLA       0.056200
     40 H11        -13.8090    15.4950   -14.4060 hc         1 VLA       0.056200
     41 H12        -12.1530    16.7430   -13.1940 hc         1 VLA       0.058700
     42 H13        -13.1390    16.8180   -11.7360 hc         1 VLA       0.058700
     43 H14        -17.4700    15.2160   -12.7500 h1         1 VLA       0.051200
     44 H15        -17.6570    14.7940   -15.0650 hn         1 VLA       0.459000
     45 H17        -12.9270    22.4230   -13.7470 hn         1 VLA       0.482000
     46 H18        -11.6180    21.3710   -13.3190 hn         1 VLA       0.482000
     47 H19        -17.0280    20.8470   -14.6190 hn         1 VLA       0.517000
     48 H20        -17.4600    19.2140   -14.2460 hn         1 VLA       0.517000
     49 H22        -12.6430     9.8190   -22.1090 hc         1 VLA       0.045200
     50 H23        -14.2700     9.3150   -19.5920 hc         1 VLA       0.017700
     51 H24        -16.1320    14.0870   -12.6020 h1         1 VLA       0.051200
     52 NA2        -12.5460    21.4810   -13.7210 nv         1 VLA      -1.057900
     53 NA4        -16.8360    20.0010   -14.0890 nv         1 VLA      -1.046900
@<TRIPOS>BOND
     1     1     2 1   
     2     1     4 2   
     3     1    10 1   
     4     2     3 1   
     5     2    31 1   
     6     3     5 1   
     7     3    24 1   
     8     3    32 1   
     9     5     6 1   
    10     5    33 1   
    11     5    49 1   
    12     6     7 1   
    13     6    34 1   
    14     6    50 1   
    15     7     8 1   
    16     7     9 1   
    17    10    11 ar  
    18    10    15 ar  
    19    11    12 ar  
    20    11    35 1   
    21    12    13 ar  
    22    12    36 1   
    23    13    14 ar  
    24    13    26 1   
    25    14    15 ar  
    26    14    37 1   
    27    15    38 1   
    28    16    25 ar  
    29    16    27 ar  
    30    16    52 1   
    31    17    18 ar  
    32    17    27 ar  
    33    17    53 1   
    34    18    22 ar  
    35    18    28 1   
    36    19    20 1   
    37    19    23 1   
    38    19    28 2   
    39    20    21 1   
    40    20    39 1   
    41    20    40 1   
    42    21    22 1   
    43    21    41 1   
    44    21    42 1   
    45    22    25 ar  
    46    23    26 1   
    47    23    43 1   
    48    23    51 1   
    49    24    29 1   
    50    24    30 1   
    51    26    44 1   
    52    45    52 1   
    53    46    52 1   
    54    47    53 1   
    55    48    53 1   
@<TRIPOS>SUBSTRUCTURE
     1 VLA         1 TEMP              0 ****  ****    0 ROOT
