@<TRIPOS>MOLECULE
VLC
   61    65     1     0     0
SMALL
No Charge or Current Charge


@<TRIPOS>ATOM
      1 O           25.7210   -13.0110   -27.3050 oh         1 VLC      -0.512100
      2 C11         26.4480   -12.5900   -28.3790 ca         1 VLC       0.174100
      3 C12         26.7170   -13.5200   -29.3970 ca         1 VLC      -0.215000
      4 C13         27.4230   -13.1330   -30.5470 ca         1 VLC      -0.058000
      5 C14         27.8570   -11.8070   -30.6830 ca         1 VLC      -0.153000
      6 C15         27.5910   -10.8720   -29.6700 ca         1 VLC      -0.062000
      7 C10         26.8890   -11.2420   -28.4930 cp         1 VLC      -0.176500
      8 C8          26.6310   -10.2080   -27.4380 cp         1 VLC       0.335500
      9 C7          26.1990    -8.9030   -27.7760 ca         1 VLC      -0.150000
     10 N2          26.8680   -10.5350   -26.1410 nb         1 VLC      -0.273000
     11 N3          26.6910    -9.6470   -25.1400 nb         1 VLC      -0.390000
     12 C9          26.2760    -8.3950   -25.4150 ca         1 VLC       0.510900
     13 N4          26.1060    -7.6240   -24.2970 nv         1 VLC      -1.038900
     14 C6          26.0050    -7.9540   -26.7540 ca         1 VLC       0.222000
     15 N1          25.5610    -6.6310   -27.0720 nh         1 VLC      -0.785400
     16 C5          26.4890    -5.4590   -26.8690 c6         1 VLC       0.187300
     17 C           25.7820    -4.0590   -26.9970 c5         1 VLC       0.205000
     18 C4          24.4960    -6.4070   -28.1150 c6         1 VLC       0.187300
     19 C3          23.9370    -4.9380   -28.1360 c5         1 VLC       0.205000
     20 C2          23.3590    -4.4840   -26.7580 c5         1 VLC      -0.090900
     21 C1          24.5970    -3.8830   -25.9960 c5         1 VLC      -0.090900
     22 N           25.0090    -3.9270   -28.2520 nh         1 VLC      -0.798400
     23 C16         24.9170    -2.7680   -29.0510 ca         1 VLC       0.394000
     24 C23         24.4350    -2.8600   -30.3540 ca         1 VLC      -0.273000
     25 C19         24.3510    -1.7100   -31.1340 ca         1 VLC       0.618300
     26 N5          24.7150    -0.4940   -30.6830 nb         1 VLC      -0.785000
     27 C18         25.1820    -0.4060   -29.4230 ca         1 VLC       0.405900
     28 C17         25.3010    -1.5110   -28.5790 ca         1 VLC      -0.275000
     29 O1          23.8700    -1.8460   -32.4130 os         1 VLC      -0.458300
     30 C20         23.7710    -0.7100   -33.3000 c3         1 VLC       0.174600
     31 C21         23.2030    -1.1810   -34.6590 c3         1 VLC       0.152600
     32 O2          24.2030    -1.9670   -35.3410 os         1 VLC      -0.442000
     33 C22         23.7910    -2.4710   -36.6220 c3         1 VLC       0.144900
     34 H15         25.5210   -13.9630   -27.4240 ho         1 VLC       0.462000
     35 H16         26.3750   -14.5490   -29.3080 ha         1 VLC       0.113000
     36 H17         27.6290   -13.8580   -31.3330 ha         1 VLC       0.113000
     37 H18         28.4030   -11.5030   -31.5740 ha         1 VLC       0.118000
     38 H19         27.9460    -9.8510   -29.7920 ha         1 VLC       0.115000
     39 H12         26.0230    -8.6450   -28.8140 ha         1 VLC       0.130000
     40 H14         26.0360    -8.1100   -23.4100 hn         1 VLC       0.467000
     41 H13         25.5380    -6.7900   -24.4120 hn         1 VLC       0.467000
     42 H11         26.9650    -5.5160   -25.8800 h1         1 VLC       0.055700
     43 H10         27.2970    -5.5030   -27.6130 h1         1 VLC       0.055700
     44 H1          26.5480    -3.2820   -26.8700 h1         1 VLC       0.079700
     45 H9          23.6560    -7.0960   -27.9440 h1         1 VLC       0.055700
     46 H8          24.8990    -6.6280   -29.1140 h1         1 VLC       0.055700
     47 H2          23.1800    -4.8650   -28.9300 h1         1 VLC       0.079700
     48 H7          22.8940    -5.3130   -26.2130 hc         1 VLC       0.053700
     49 H6          22.5850    -3.7200   -26.8950 hc         1 VLC       0.053700
     50 H4          24.7860    -4.3840   -25.0400 hc         1 VLC       0.053700
     51 H5          24.4330    -2.8230   -25.7700 hc         1 VLC       0.053700
     52 H29         24.1380    -3.8130   -30.7730 ha         1 VLC       0.134000
     53 H21         25.4690     0.5870   -29.0800 h4         1 VLC       0.013100
     54 H20         25.6740    -1.3700   -27.5720 ha         1 VLC       0.120000
     55 H22         23.0950     0.0460   -32.8790 h1         1 VLC       0.056200
     56 H23         24.7520    -0.2420   -33.4580 h1         1 VLC       0.056200
     57 H25         22.2890    -1.7660   -34.4910 h1         1 VLC       0.030700
     58 H24         22.9390    -0.2990   -35.2570 h1         1 VLC       0.030700
     59 H26         24.5990    -3.0560   -37.0790 h1         1 VLC       0.028367
     60 H28         22.9130    -3.1230   -36.5210 h1         1 VLC       0.028367
     61 H27         23.5370    -1.6480   -37.3030 h1         1 VLC       0.028367
@<TRIPOS>BOND
     1     1     2 1   
     2     1    34 1   
     3     2     3 ar  
     4     2     7 ar  
     5     3     4 ar  
     6     3    35 1   
     7     4     5 ar  
     8     4    36 1   
     9     5     6 ar  
    10     5    37 1   
    11     6     7 ar  
    12     6    38 1   
    13     7     8 1   
    14     8     9 ar  
    15     8    10 ar  
    16     9    14 ar  
    17     9    39 1   
    18    10    11 ar  
    19    11    12 ar  
    20    12    13 1   
    21    12    14 ar  
    22    13    40 1   
    23    13    41 1   
    24    14    15 1   
    25    15    16 1   
    26    15    18 1   
    27    16    17 1   
    28    16    42 1   
    29    16    43 1   
    30    17    21 1   
    31    17    22 1   
    32    17    44 1   
    33    18    19 1   
    34    18    45 1   
    35    18    46 1   
    36    19    20 1   
    37    19    22 1   
    38    19    47 1   
    39    20    21 1   
    40    20    48 1   
    41    20    49 1   
    42    21    50 1   
    43    21    51 1   
    44    22    23 1   
    45    23    24 ar  
    46    23    28 ar  
    47    24    25 ar  
    48    24    52 1   
    49    25    26 ar  
    50    25    29 1   
    51    26    27 ar  
    52    27    28 ar  
    53    27    53 1   
    54    28    54 1   
    55    29    30 1   
    56    30    31 1   
    57    30    55 1   
    58    30    56 1   
    59    31    32 1   
    60    31    57 1   
    61    31    58 1   
    62    32    33 1   
    63    33    59 1   
    64    33    60 1   
    65    33    61 1   
@<TRIPOS>SUBSTRUCTURE
     1 VLC         1 TEMP              0 ****  ****    0 ROOT
