@<TRIPOS>MOLECULE
VLC
   61    65     1     0     0
SMALL
abcg2


@<TRIPOS>ATOM
      1 O           25.7650   -12.7960   -27.0550 oh         1 VLC      -0.512100
      2 C11         26.5550   -12.5110   -28.1060 ca         1 VLC       0.174100
      3 C12         26.8960   -13.4770   -29.0510 ca         1 VLC      -0.215000
      4 C13         27.6850   -13.1500   -30.1420 ca         1 VLC      -0.058000
      5 C14         28.1430   -11.8510   -30.3100 ca         1 VLC      -0.153000
      6 C15         27.8020   -10.8920   -29.3690 ca         1 VLC      -0.062000
      7 C10         27.0180   -11.1960   -28.2570 cp         1 VLC      -0.176500
      8 C8          26.6820   -10.1290   -27.2900 cp         1 VLC       0.335500
      9 C7          26.1780    -8.8990   -27.7400 ca         1 VLC      -0.150000
     10 N2          26.9150   -10.3560   -26.0150 nb         1 VLC      -0.273000
     11 N3          26.6200    -9.4380   -25.1190 nb         1 VLC      -0.390000
     12 C9          26.1350    -8.2590   -25.4670 ca         1 VLC       0.510900
     13 N4          25.8500    -7.3850   -24.4560 nv         1 VLC      -1.038900
     14 C6          25.9240    -7.9020   -26.8300 ca         1 VLC       0.222000
     15 N1          25.4250    -6.6470   -27.1610 nh         1 VLC      -0.785400
     16 C5          26.2850    -5.5040   -26.8500 c6         1 VLC       0.187300
     17 C           25.5170    -4.2040   -27.0600 c5         1 VLC       0.205000
     18 C4          24.7850    -6.5210   -28.4580 c6         1 VLC       0.187300
     19 C3          24.1030    -5.1610   -28.5610 c5         1 VLC       0.205000
     20 C2          23.2070    -4.8720   -27.3430 c5         1 VLC      -0.090900
     21 C1          24.1620    -4.2060   -26.3330 c5         1 VLC      -0.090900
     22 N           25.1370    -4.1360   -28.4670 nh         1 VLC      -0.798400
     23 C16         25.1480    -2.9970   -29.2130 ca         1 VLC       0.394000
     24 C23         24.4830    -2.9100   -30.4400 ca         1 VLC      -0.273000
     25 C19         24.5700    -1.7320   -31.1780 ca         1 VLC       0.618300
     26 N5          25.2440    -0.6610   -30.8060 nb         1 VLC      -0.785000
     27 C18         25.8810    -0.7490   -29.6370 ca         1 VLC       0.405900
     28 C17         25.8770    -1.8510   -28.8180 ca         1 VLC      -0.275000
     29 O1          23.9120    -1.7190   -32.3430 os         1 VLC      -0.458300
     30 C20         23.9750    -0.5500   -33.1480 c3         1 VLC       0.174600
     31 C21         23.1280    -0.7800   -34.3710 c3         1 VLC       0.152600
     32 O2          23.6780    -1.8120   -35.1460 os         1 VLC      -0.442000
     33 C22         22.9450    -2.0520   -36.3200 c3         1 VLC       0.144900
     34 H15         25.4880   -13.7190   -27.0900 ho         1 VLC       0.462000
     35 H16         26.5320   -14.4920   -28.9330 ha         1 VLC       0.113000
     36 H17         27.9380   -13.9170   -30.8630 ha         1 VLC       0.113000
     37 H18         28.7600   -11.5880   -31.1580 ha         1 VLC       0.118000
     38 H19         28.1630    -9.8770   -29.4890 ha         1 VLC       0.115000
     39 H12         26.0070    -8.7520   -28.7980 ha         1 VLC       0.130000
     40 H14         25.8170    -7.8070   -23.5400 hn         1 VLC       0.467000
     41 H13         25.0820    -6.7540   -24.6260 hn         1 VLC       0.467000
     42 H11         26.6220    -5.5630   -25.8160 h1         1 VLC       0.055700
     43 H10         27.1770    -5.4990   -27.4900 h1         1 VLC       0.055700
     44 H1          26.1600    -3.3800   -26.7630 h1         1 VLC       0.079700
     45 H9          24.0380    -7.3100   -28.5630 h1         1 VLC       0.055700
     46 H8          25.4950    -6.6190   -29.2910 h1         1 VLC       0.055700
     47 H2          23.5630    -5.1200   -29.5030 h1         1 VLC       0.079700
     48 H7          22.7450    -5.7800   -26.9560 hc         1 VLC       0.053700
     49 H6          22.4040    -4.1920   -27.6300 hc         1 VLC       0.053700
     50 H4          24.2070    -4.7300   -25.3780 hc         1 VLC       0.053700
     51 H5          23.8570    -3.1800   -26.1230 hc         1 VLC       0.053700
     52 H29         23.9150    -3.7330   -30.8480 ha         1 VLC       0.134000
     53 H21         26.4370     0.1310   -29.3310 h4         1 VLC       0.013100
     54 H20         26.4350    -1.8120   -27.8950 ha         1 VLC       0.120000
     55 H22         23.5890     0.3190   -32.6100 h1         1 VLC       0.056200
     56 H23         25.0080    -0.3290   -33.4330 h1         1 VLC       0.056200
     57 H25         22.0940    -1.0130   -34.0770 h1         1 VLC       0.030700
     58 H24         23.0910     0.1640   -34.9330 h1         1 VLC       0.030700
     59 H26         23.4350    -2.8590   -36.8640 h1         1 VLC       0.028367
     60 H28         21.9130    -2.3550   -36.1070 h1         1 VLC       0.028367
     61 H27         22.9080    -1.1690   -36.9690 h1         1 VLC       0.028367
@<TRIPOS>BOND
     1     1     2 1   
     2     1    34 1   
     3     2     3 ar  
     4     2     7 ar  
     5     3     4 ar  
     6     3    35 1   
     7     4     5 ar  
     8     4    36 1   
     9     5     6 ar  
    10     5    37 1   
    11     6     7 ar  
    12     6    38 1   
    13     7     8 1   
    14     8     9 ar  
    15     8    10 ar  
    16     9    14 ar  
    17     9    39 1   
    18    10    11 ar  
    19    11    12 ar  
    20    12    13 1   
    21    12    14 ar  
    22    13    40 1   
    23    13    41 1   
    24    14    15 1   
    25    15    16 1   
    26    15    18 1   
    27    16    17 1   
    28    16    42 1   
    29    16    43 1   
    30    17    21 1   
    31    17    22 1   
    32    17    44 1   
    33    18    19 1   
    34    18    45 1   
    35    18    46 1   
    36    19    20 1   
    37    19    22 1   
    38    19    47 1   
    39    20    21 1   
    40    20    48 1   
    41    20    49 1   
    42    21    50 1   
    43    21    51 1   
    44    22    23 1   
    45    23    24 ar  
    46    23    28 ar  
    47    24    25 ar  
    48    24    52 1   
    49    25    26 ar  
    50    25    29 1   
    51    26    27 ar  
    52    27    28 ar  
    53    27    53 1   
    54    28    54 1   
    55    29    30 1   
    56    30    31 1   
    57    30    55 1   
    58    30    56 1   
    59    31    32 1   
    60    31    57 1   
    61    31    58 1   
    62    32    33 1   
    63    33    59 1   
    64    33    60 1   
    65    33    61 1   
@<TRIPOS>SUBSTRUCTURE
     1 VLC         1 TEMP              0 ****  ****    0 ROOT
