@<TRIPOS>MOLECULE
VLE
   59    64     1     0     0
SMALL
No Charge or Current Charge


@<TRIPOS>ATOM
      1 C1          -9.6770     3.6520    12.1460 c3         1 VLE      -0.156400
      2 C2          -8.3140     2.9520    12.2960 c          1 VLE       0.607100
      3 C3          -8.9230     1.8820    14.5080 c6         1 VLE       0.086000
      4 C7          -6.0210    -2.0160    18.1810 ca         1 VLE       0.075000
      5 C8          -5.3830    -3.1950    18.5870 ca         1 VLE      -0.131000
      6 C9          -5.1000    -4.2340    17.6900 cp         1 VLE       0.046000
      7 C10         -5.4880    -4.0750    16.3460 ca         1 VLE       0.045000
      8 C11         -6.1540    -2.9070    15.9040 ca         1 VLE       0.202100
      9 C12         -7.7120    -2.6360    14.0060 c3         1 VLE       0.172600
     10 C13         -7.5710    -1.3420    13.1940 c3         1 VLE      -0.121400
     11 C14         -6.9070    -0.2190    14.0280 c6         1 VLE       0.208500
     12 C15         -6.8780     1.1450    13.2750 c6         1 VLE       0.083000
     13 C16         -4.4050    -5.4610    18.1700 cp         1 VLE       0.000000
     14 C19         -3.1590    -7.8370    19.1260 ca         1 VLE      -0.071000
     15 C20         -4.5330    -7.6270    19.3090 ca         1 VLE      -0.071000
     16 C21         -5.1200    -6.4740    18.8430 ca         1 VLE      -0.127000
     17 C22         -6.4960    -6.5900    19.1910 cc         1 VLE      -0.194100
     18 C24         -6.8240     0.0590    18.7420 ca         1 VLE       0.182900
     19 Cl          -5.1550    -5.3790    15.1900 cl         1 VLE      -0.171000
     20 C6          -6.4300    -1.8330    16.8230 ca         1 VLE      -0.240000
     21 O1          -6.4140    -2.8870    14.5490 os         1 VLE      -0.349100
     22 N1          -7.6200    -0.1290    15.3190 nh         1 VLE      -0.784300
     23 C4          -8.9700     0.5110    15.2320 c6         1 VLE       0.195800
     24 N           -8.1830     1.8760    13.2060 n          1 VLE      -0.413800
     25 O           -7.3760     3.2860    11.5830 o          1 VLE      -0.599100
     26 C           -9.7590     4.9360    13.0030 c3         1 VLE      -0.086100
     27 N4          -6.2230    -1.0730    19.1200 nb         1 VLE      -0.216000
     28 N5          -7.2540     0.3480    17.5110 nb         1 VLE      -0.314000
     29 C5          -7.0710    -0.5730    16.5450 ca         1 VLE       0.430900
     30 N2          -6.6360    -7.8100    19.8440 na         1 VLE       0.015500
     31 N3          -5.4230    -8.4980    19.9410 nc         1 VLE      -0.283400
     32 C18         -2.3990    -6.8500    18.4660 ca         1 VLE      -0.101000
     33 C17         -3.0070    -5.6630    17.9890 ca         1 VLE      -0.059300
     34 C23         -2.1430    -4.6160    17.2930 c3         1 VLE      -0.047800
     35 H1         -10.4870     2.9860    12.4610 hc         1 VLE       0.063700
     36 H2          -9.8190     3.9320    11.0960 hc         1 VLE       0.063700
     37 H3          -8.4350     2.6060    15.1760 h1         1 VLE       0.063700
     38 H4          -9.9580     2.2210    14.3750 h1         1 VLE       0.063700
     39 H5          -5.0840    -3.3100    19.6260 ha         1 VLE       0.147000
     40 H6          -8.4660    -2.5280    14.7970 h1         1 VLE       0.062200
     41 H7          -8.0230    -3.4550    13.3460 h1         1 VLE       0.062200
     42 H8          -6.9680    -1.5460    12.3020 hc         1 VLE       0.071700
     43 H9          -8.5600    -1.0370    12.8350 hc         1 VLE       0.071700
     44 H10         -5.8580    -0.5030    14.2040 h1         1 VLE       0.082700
     45 H11         -6.4920     0.9740    12.2600 h1         1 VLE       0.076200
     46 H12         -6.1520     1.7950    13.7830 h1         1 VLE       0.076200
     47 H13         -2.6860    -8.7460    19.4900 ha         1 VLE       0.127000
     48 H14         -7.3480    -5.9360    19.0340 h4         1 VLE       0.232000
     49 H15         -6.9800     0.8140    19.5100 h5         1 VLE       0.045100
     50 H16         -9.4180     0.6540    16.2260 h1         1 VLE       0.070200
     51 H17         -9.6600    -0.1500    14.6870 h1         1 VLE       0.070200
     52 H18        -10.7350     5.4210    12.8730 hc         1 VLE       0.042033
     53 H19         -9.6300     4.7090    14.0680 hc         1 VLE       0.042033
     54 H20         -8.9810     5.6500    12.7060 hc         1 VLE       0.042033
     55 H21         -7.4930    -8.2040    20.2250 hn         1 VLE       0.370000
     56 H22         -1.3320    -7.0100    18.3270 ha         1 VLE       0.111000
     57 H23         -2.3280    -3.6150    17.7010 hc         1 VLE       0.043700
     58 H24         -1.0740    -4.8240    17.4140 hc         1 VLE       0.043700
     59 H25         -2.3550    -4.5840    16.2180 hc         1 VLE       0.043700
@<TRIPOS>BOND
     1     1     2 1   
     2     1    26 1   
     3     1    35 1   
     4     1    36 1   
     5     2    24 1   
     6     2    25 2   
     7     3    23 1   
     8     3    24 1   
     9     3    37 1   
    10     3    38 1   
    11     4     5 ar  
    12     4    20 ar  
    13     4    27 ar  
    14     5     6 ar  
    15     5    39 1   
    16     6     7 ar  
    17     6    13 1   
    18     7     8 ar  
    19     7    19 1   
    20     8    20 ar  
    21     8    21 1   
    22     9    10 1   
    23     9    21 1   
    24     9    40 1   
    25     9    41 1   
    26    10    11 1   
    27    10    42 1   
    28    10    43 1   
    29    11    12 1   
    30    11    22 1   
    31    11    44 1   
    32    12    24 1   
    33    12    45 1   
    34    12    46 1   
    35    13    16 ar  
    36    13    33 ar  
    37    14    15 ar  
    38    14    32 ar  
    39    14    47 1   
    40    15    16 ar  
    41    15    31 2   
    42    16    17 2   
    43    17    30 1   
    44    17    48 1   
    45    18    27 ar  
    46    18    28 ar  
    47    18    49 1   
    48    20    29 ar  
    49    22    23 1   
    50    22    29 1   
    51    23    50 1   
    52    23    51 1   
    53    26    52 1   
    54    26    53 1   
    55    26    54 1   
    56    28    29 ar  
    57    30    31 1   
    58    30    55 1   
    59    32    33 ar  
    60    32    56 1   
    61    33    34 1   
    62    34    57 1   
    63    34    58 1   
    64    34    59 1   
@<TRIPOS>SUBSTRUCTURE
     1 VLE         1 TEMP              0 ****  ****    0 ROOT
