@<TRIPOS>MOLECULE
VLE
   59    64     1     0     0
SMALL
bcc


@<TRIPOS>ATOM
      1 C1          -9.2280     3.1730    12.1570 c3         1 VLE      -0.156400
      2 C2          -8.1070     2.1620    12.2850 c          1 VLE       0.674100
      3 C3          -8.2750     2.2490    14.7840 c6         1 VLE       0.086000
      4 C7          -6.6020    -2.2050    18.2910 ca         1 VLE       0.468600
      5 C8          -5.7210    -3.2560    18.5840 ca         1 VLE      -0.214300
      6 C9          -5.3250    -4.1400    17.6140 cp         1 VLE       0.046000
      7 C10         -5.8820    -4.0160    16.3370 ca         1 VLE      -0.046600
      8 C11         -6.7580    -2.9910    15.9910 ca         1 VLE       0.202100
      9 C12         -8.4130    -2.4530    14.2690 c3         1 VLE       0.149400
     10 C13         -7.9780    -1.2250    13.5040 c3         1 VLE      -0.121400
     11 C14         -7.1160    -0.3610    14.4120 c6         1 VLE       0.208500
     12 C15         -6.6000     0.9110    13.7430 c6         1 VLE       0.083000
     13 C16         -4.4010    -5.2460    17.9510 cp         1 VLE       0.000000
     14 C19         -2.6780    -7.4020    18.6900 ca         1 VLE      -0.089000
     15 C20         -4.0610    -7.4710    18.9710 ca         1 VLE      -0.071000
     16 C21         -4.9120    -6.3940    18.6000 ca         1 VLE      -0.127000
     17 C22         -6.1750    -6.8010    19.0180 cc         1 VLE      -0.144100
     18 C24         -7.8990    -0.5340    19.0610 ca         1 VLE       0.708900
     19 CL          -5.5000    -5.2070    15.1430 cl         1 VLE      -0.079400
     20 C6          -7.0370    -1.9700    16.9510 ca         1 VLE      -0.370600
     21 O1          -7.2540    -3.1170    14.7590 os         1 VLE      -0.325900
     22 N1          -7.8530    -0.0290    15.6230 nh         1 VLE      -0.784300
     23 C4          -8.8520     1.0260    15.4750 c6         1 VLE       0.195800
     24 N           -7.6600     1.8680    13.5310 n          1 VLE      -0.480800
     25 O           -7.5910     1.6750    11.2880 o          1 VLE      -0.599100
     26 C           -8.7190     4.6040    12.3280 c3         1 VLE      -0.086100
     27 N4          -7.0330    -1.4640    19.3430 nb         1 VLE      -0.742000
     28 N5          -8.2460    -0.1090    17.8530 nb         1 VLE      -0.840000
     29 C5          -7.7300    -0.7000    16.7870 ca         1 VLE       0.759200
     30 N2          -5.9940    -8.0040    19.5700 na         1 VLE       0.065800
     31 N3          -4.7480    -8.4500    19.5660 nc         1 VLE      -0.283400
     32 C18         -2.2150    -6.2820    18.0630 ca         1 VLE      -0.119000
     33 C17         -3.0550    -5.1910    17.6820 ca         1 VLE      -0.059300
     34 C23         -2.4330    -3.9940    17.0220 c3         1 VLE      -0.047800
     35 H1         -10.0400     2.9720    12.8570 hc         1 VLE       0.063700
     36 H2          -9.6450     3.0530    11.1580 hc         1 VLE       0.063700
     37 H3          -7.5200     2.7180    15.4210 h1         1 VLE       0.063700
     38 H4          -9.0690     2.9760    14.6380 h1         1 VLE       0.063700
     39 H5          -5.3760    -3.3660    19.6040 ha         1 VLE       0.165000
     40 H6          -9.1110    -2.2210    15.0770 h1         1 VLE       0.062200
     41 H7          -8.9070    -3.1700    13.6130 h1         1 VLE       0.062200
     42 H8          -7.4090    -1.5170    12.6190 hc         1 VLE       0.071700
     43 H9          -8.8600    -0.6830    13.1550 hc         1 VLE       0.071700
     44 H10         -6.2180    -0.9090    14.7010 h1         1 VLE       0.082700
     45 H11         -6.1280     0.6510    12.7990 h1         1 VLE       0.076200
     46 H12         -5.8400     1.3650    14.3850 h1         1 VLE       0.076200
     47 H13         -2.0120    -8.2110    18.9610 ha         1 VLE       0.145000
     48 H14         -7.1440    -6.3330    18.9650 h4         1 VLE       0.182000
     49 H15         -8.3580    -0.0120    19.8960 h5         1 VLE       0.045100
     50 H16         -9.2270     1.3020    16.4540 h1         1 VLE       0.070200
     51 H17         -9.6940     0.6450    14.8870 h1         1 VLE       0.070200
     52 H18         -9.5250     5.3140    12.1520 hc         1 VLE       0.042033
     53 H19         -8.3290     4.7880    13.3290 hc         1 VLE       0.042033
     54 H20         -7.9230     4.8220    11.6150 hc         1 VLE       0.042033
     55 H21         -6.7180    -8.5790    19.9750 hn         1 VLE       0.319700
     56 H22         -1.1580    -6.2060    17.8350 ha         1 VLE       0.129000
     57 H23         -2.2290    -3.2050    17.7490 hc         1 VLE       0.043700
     58 H24         -1.4850    -4.2540    16.5530 hc         1 VLE       0.043700
     59 H25         -3.0750    -3.5630    16.2540 hc         1 VLE       0.043700
@<TRIPOS>BOND
     1     1     2 1   
     2     1    26 1   
     3     1    35 1   
     4     1    36 1   
     5     2    24 1   
     6     2    25 2   
     7     3    23 1   
     8     3    24 1   
     9     3    37 1   
    10     3    38 1   
    11     4     5 ar  
    12     4    20 ar  
    13     4    27 ar  
    14     5     6 ar  
    15     5    39 1   
    16     6     7 ar  
    17     6    13 1   
    18     7     8 ar  
    19     7    19 1   
    20     8    20 ar  
    21     8    21 1   
    22     9    10 1   
    23     9    21 1   
    24     9    40 1   
    25     9    41 1   
    26    10    11 1   
    27    10    42 1   
    28    10    43 1   
    29    11    12 1   
    30    11    22 1   
    31    11    44 1   
    32    12    24 1   
    33    12    45 1   
    34    12    46 1   
    35    13    16 ar  
    36    13    33 ar  
    37    14    15 ar  
    38    14    32 ar  
    39    14    47 1   
    40    15    16 ar  
    41    15    31 2   
    42    16    17 2   
    43    17    30 1   
    44    17    48 1   
    45    18    27 ar  
    46    18    28 ar  
    47    18    49 1   
    48    20    29 ar  
    49    22    23 1   
    50    22    29 1   
    51    23    50 1   
    52    23    51 1   
    53    26    52 1   
    54    26    53 1   
    55    26    54 1   
    56    28    29 ar  
    57    30    31 1   
    58    30    55 1   
    59    32    33 ar  
    60    32    56 1   
    61    33    34 1   
    62    34    57 1   
    63    34    58 1   
    64    34    59 1   
@<TRIPOS>SUBSTRUCTURE
     1 VLE         1 TEMP              0 ****  ****    0 ROOT
