@<TRIPOS>MOLECULE
VLF
   42    43     1     0     0
SMALL
No Charge or Current Charge


@<TRIPOS>ATOM
      1 C2          10.7660   -23.8020     2.6560 ca         1 VLF      -0.016300
      2 C4          11.9340   -22.7710     0.7750 ca         1 VLF      -0.001500
      3 C5          12.7500   -23.9130     0.6500 ca         1 VLF      -0.292500
      4 C6          12.5740   -24.9980     1.5320 ca         1 VLF      -0.001500
      5 C1           9.6950   -23.7440     3.7330 c3         1 VLF      -0.057800
      6 C12         16.5890   -23.9310     0.2910 c3         1 VLF       0.142500
      7 C13         17.6590   -22.9280     0.7870 c3         1 VLF      -0.031100
      8 C14         19.0600   -23.5270     0.8000 ca         1 VLF      -0.105300
      9 C15         19.7720   -23.6900    -0.4050 ca         1 VLF      -0.103500
     10 C16         21.0550   -24.2620    -0.3990 ca         1 VLF      -0.105500
     11 C17         21.6350   -24.6740     0.8120 ca         1 VLF      -0.101000
     12 C18         20.9310   -24.5140     2.0170 ca         1 VLF      -0.105500
     13 C19         19.6470   -23.9410     2.0120 ca         1 VLF      -0.103500
     14 C20         16.5430   -25.1880     1.2310 c          1 VLF       0.553100
     15 C22         17.2700   -26.4580     0.7020 c3         1 VLF       0.060600
     16 C3          10.9460   -22.7200     1.7740 ca         1 VLF      -0.136000
     17 C7          11.5840   -24.9400     2.5290 ca         1 VLF      -0.136000
     18 N11         15.2810   -23.2130     0.1460 n7         1 VLF      -0.902300
     19 O10         14.4460   -25.3610    -0.8560 o          1 VLF      -0.556000
     20 O23         17.4640   -27.4820     1.7170 oh         1 VLF      -0.649000
     21 S8          14.0150   -23.9800    -0.6220 sy         1 VLF       1.181600
     22 H1          12.0610   -21.9230     0.1040 ha         1 VLF       0.141500
     23 H2          13.2010   -25.8850     1.4530 ha         1 VLF       0.141500
     24 H3           8.7450   -24.1450     3.3600 hc         1 VLF       0.050033
     25 H4           9.9820   -24.3280     4.6150 hc         1 VLF       0.050033
     26 H5           9.5170   -22.7140     4.0660 hc         1 VLF       0.050033
     27 H6          16.9160   -24.2900    -0.6960 h1         1 VLF       0.063700
     28 H7          17.6510   -22.0430     0.1390 hc         1 VLF       0.064200
     29 H8          17.3810   -22.5730     1.7870 hc         1 VLF       0.064200
     30 H9          19.3300   -23.3740    -1.3490 ha         1 VLF       0.115000
     31 H10         21.6000   -24.3850    -1.3320 ha         1 VLF       0.118000
     32 H11         22.6290   -25.1180     0.8170 ha         1 VLF       0.117000
     33 H12         21.3790   -24.8330     2.9560 ha         1 VLF       0.118000
     34 H13         19.1090   -23.8250     2.9500 ha         1 VLF       0.115000
     35 H14         16.6720   -26.8460    -0.1330 h1         1 VLF       0.075200
     36 H15         18.2360   -26.1430     0.2880 h1         1 VLF       0.075200
     37 H16         10.3190   -21.8360     1.8610 ha         1 VLF       0.119000
     38 H17         11.4550   -25.7820     3.2040 ha         1 VLF       0.119000
     39 H18         15.4040   -22.4470    -0.5170 hn         1 VLF       0.487000
     40 H19         16.6710   -27.4670     2.3030 ho         1 VLF       0.462000
     41 O21         15.9560   -25.1910     2.3130 o          1 VLF      -0.523100
     42 O9          13.6870   -23.0790    -1.7260 o          1 VLF      -0.556000
@<TRIPOS>BOND
     1     1     5 1   
     2     1    16 ar  
     3     1    17 ar  
     4     2     3 ar  
     5     2    16 ar  
     6     2    22 1   
     7     3     4 ar  
     8     3    21 1   
     9     4    17 ar  
    10     4    23 1   
    11     5    24 1   
    12     5    25 1   
    13     5    26 1   
    14     6     7 1   
    15     6    14 1   
    16     6    18 1   
    17     6    27 1   
    18     7     8 1   
    19     7    28 1   
    20     7    29 1   
    21     8     9 ar  
    22     8    13 ar  
    23     9    10 ar  
    24     9    30 1   
    25    10    11 ar  
    26    10    31 1   
    27    11    12 ar  
    28    11    32 1   
    29    12    13 ar  
    30    12    33 1   
    31    13    34 1   
    32    14    15 1   
    33    14    41 2   
    34    15    20 1   
    35    15    35 1   
    36    15    36 1   
    37    16    37 1   
    38    17    38 1   
    39    18    21 1   
    40    18    39 1   
    41    19    21 2   
    42    20    40 1   
    43    21    42 2   
@<TRIPOS>SUBSTRUCTURE
     1 VLF         1 TEMP              0 ****  ****    0 ROOT
