@<TRIPOS>MOLECULE
VLF
   42    43     1     0     0
SMALL
abcg2


@<TRIPOS>ATOM
      1 C2          10.6260   -23.6530     2.6220 ca         1 VLF      -0.016300
      2 C4          11.6010   -23.0920     0.4730 ca         1 VLF      -0.001500
      3 C5          12.7300   -23.8310     0.8030 ca         1 VLF      -0.292500
      4 C6          12.8290   -24.4800     2.0330 ca         1 VLF      -0.001500
      5 C1           9.4810   -23.5840     3.5910 c3         1 VLF      -0.057800
      6 C12         16.6530   -24.0060     0.3100 c3         1 VLF       0.142500
      7 C13         17.6910   -23.0650     0.9630 c3         1 VLF      -0.031100
      8 C14         19.0940   -23.6090     0.8950 ca         1 VLF      -0.105300
      9 C15         19.8240   -23.5360    -0.2920 ca         1 VLF      -0.103500
     10 C16         21.0980   -24.0850    -0.3760 ca         1 VLF      -0.105500
     11 C17         21.6600   -24.7170     0.7310 ca         1 VLF      -0.101000
     12 C18         20.9420   -24.7890     1.9200 ca         1 VLF      -0.105500
     13 C19         19.6680   -24.2360     2.0000 ca         1 VLF      -0.103500
     14 C20         16.6860   -25.3550     1.0210 c          1 VLF       0.553100
     15 C22         17.4030   -26.4770     0.3190 c3         1 VLF       0.060600
     16 C3          10.5570   -23.0090     1.3860 ca         1 VLF      -0.136000
     17 C7          11.7790   -24.3850     2.9310 ca         1 VLF      -0.136000
     18 N11         15.3390   -23.3780     0.4540 n7         1 VLF      -0.902300
     19 O10         14.3560   -25.3950    -0.5570 o          1 VLF      -0.556000
     20 O23         17.5030   -27.6260     1.1300 oh         1 VLF      -0.649000
     21 S8          14.0480   -23.9940    -0.3590 sy         1 VLF       1.181600
     22 H1          11.5420   -22.5880    -0.4810 ha         1 VLF       0.141500
     23 H2          13.7200   -25.0390     2.2840 ha         1 VLF       0.141500
     24 H3           8.7930   -24.4180     3.4250 hc         1 VLF       0.050033
     25 H4           9.8310   -23.6470     4.6220 hc         1 VLF       0.050033
     26 H5           8.9150   -22.6600     3.4660 hc         1 VLF       0.050033
     27 H6          16.9230   -24.1540    -0.7380 h1         1 VLF       0.063700
     28 H7          17.6330   -22.1090     0.4390 hc         1 VLF       0.064200
     29 H8          17.3950   -22.9030     2.0000 hc         1 VLF       0.064200
     30 H9          19.3890   -23.0480    -1.1570 ha         1 VLF       0.115000
     31 H10         21.6530   -24.0200    -1.3040 ha         1 VLF       0.118000
     32 H11         22.6520   -25.1460     0.6660 ha         1 VLF       0.117000
     33 H12         21.3740   -25.2740     2.7870 ha         1 VLF       0.118000
     34 H13         19.1100   -24.2980     2.9260 ha         1 VLF       0.115000
     35 H14         16.8470   -26.6860    -0.6040 h1         1 VLF       0.075200
     36 H15         18.3980   -26.1290     0.0230 h1         1 VLF       0.075200
     37 H16          9.6780   -22.4290     1.1340 ha         1 VLF       0.119000
     38 H17         11.8540   -24.8810     3.8910 ha         1 VLF       0.119000
     39 H18         15.3500   -22.3640     0.4430 hn         1 VLF       0.487000
     40 H19         16.9710   -27.4460     1.9230 ho         1 VLF       0.462000
     41 O21         16.2000   -25.5270     2.1190 o          1 VLF      -0.523100
     42 O9          13.7200   -23.1950    -1.5200 o          1 VLF      -0.556000
@<TRIPOS>BOND
     1     1     5 1   
     2     1    16 ar  
     3     1    17 ar  
     4     2     3 ar  
     5     2    16 ar  
     6     2    22 1   
     7     3     4 ar  
     8     3    21 1   
     9     4    17 ar  
    10     4    23 1   
    11     5    24 1   
    12     5    25 1   
    13     5    26 1   
    14     6     7 1   
    15     6    14 1   
    16     6    18 1   
    17     6    27 1   
    18     7     8 1   
    19     7    28 1   
    20     7    29 1   
    21     8     9 ar  
    22     8    13 ar  
    23     9    10 ar  
    24     9    30 1   
    25    10    11 ar  
    26    10    31 1   
    27    11    12 ar  
    28    11    32 1   
    29    12    13 ar  
    30    12    33 1   
    31    13    34 1   
    32    14    15 1   
    33    14    41 2   
    34    15    20 1   
    35    15    35 1   
    36    15    36 1   
    37    16    37 1   
    38    17    38 1   
    39    18    21 1   
    40    18    39 1   
    41    19    21 2   
    42    20    40 1   
    43    21    42 2   
@<TRIPOS>SUBSTRUCTURE
     1 VLF         1 TEMP              0 ****  ****    0 ROOT
