@<TRIPOS>MOLECULE
VLG
   28    29     1     0     0
SMALL
bcc


@<TRIPOS>ATOM
      1 C01          2.1040     0.2820    23.6340 c3         1 VLG       0.128700
      2 C03          2.6450    -0.8440    21.6140 ca         1 VLG       0.129100
      3 C04          2.7460    -2.0590    20.9320 ca         1 VLG      -0.185000
      4 C05          3.1270    -2.0660    19.6030 ca         1 VLG      -0.102000
      5 C06          3.4130    -0.8820    18.9350 ca         1 VLG      -0.165000
      6 C07          3.3190     0.3340    19.6080 cp         1 VLG       0.045000
      7 C08          2.9330     0.3440    20.9520 ca         1 VLG      -0.213000
      8 C09          3.6240     1.6040    18.9180 cp         1 VLG      -0.094000
      9 C10          3.2300     1.8140    17.5960 ca         1 VLG      -0.141000
     10 C11          3.5150     3.0060    16.9490 ca         1 VLG      -0.112500
     11 C12          4.2110     4.0270    17.5920 ca         1 VLG      -0.119600
     12 C13          4.6060     3.8150    18.9100 ca         1 VLG      -0.112500
     13 C14          4.3160     2.6290    19.5650 ca         1 VLG      -0.141000
     14 C15          4.5310     5.3370    16.8750 c          1 VLG       0.924200
     15 O02          2.2560    -0.9170    22.9020 os         1 VLG      -0.331900
     16 O16          4.0900     5.4570    15.7170 o          1 VLG      -0.822800
     17 O17          5.2060     6.1660    17.5150 o          1 VLG      -0.822800
     18 H1           1.7750    -0.0030    24.6300 h1         1 VLG       0.036033
     19 H2           3.0450     0.8320    23.7190 h1         1 VLG       0.036033
     20 H3           1.3520     0.9400    23.1900 h1         1 VLG       0.036033
     21 H4           2.5210    -2.9840    21.4490 ha         1 VLG       0.130000
     22 H5           3.2100    -3.0100    19.0800 ha         1 VLG       0.119000
     23 H6           3.7290    -0.9100    17.9010 ha         1 VLG       0.137000
     24 H7           2.8410     1.2950    21.4600 ha         1 VLG       0.139000
     25 H8           2.6740     1.0460    17.0720 ha         1 VLG       0.106000
     26 H9           3.1880     3.1500    15.9280 ha         1 VLG       0.146000
     27 H10          5.1550     4.5880    19.4310 ha         1 VLG       0.146000
     28 H11          4.6540     2.4890    20.5850 ha         1 VLG       0.106000
@<TRIPOS>BOND
     1     1    15 1   
     2     1    18 1   
     3     1    19 1   
     4     1    20 1   
     5     2     3 ar  
     6     2     7 ar  
     7     2    15 1   
     8     3     4 ar  
     9     3    21 1   
    10     4     5 ar  
    11     4    22 1   
    12     5     6 ar  
    13     5    23 1   
    14     6     7 ar  
    15     6     8 1   
    16     7    24 1   
    17     8     9 ar  
    18     8    13 ar  
    19     9    10 ar  
    20     9    25 1   
    21    10    11 ar  
    22    10    26 1   
    23    11    12 ar  
    24    11    14 1   
    25    12    13 ar  
    26    12    27 1   
    27    13    28 1   
    28    14    16 1   
    29    14    17 1   
@<TRIPOS>SUBSTRUCTURE
     1 VLG         1 TEMP              0 ****  ****    0 ROOT
