@<TRIPOS>MOLECULE
VLG
   28    29     1     0     0
SMALL
No Charge or Current Charge


@<TRIPOS>ATOM
      1 C01          2.1390     0.2460    23.7670 c3         1 VLG       0.151900
      2 C03          2.6230    -0.8890    21.6280 ca         1 VLG       0.129100
      3 C04          2.7020    -2.1020    20.9260 ca         1 VLG      -0.167000
      4 C05          3.0750    -2.1150    19.5740 ca         1 VLG      -0.084000
      5 C06          3.3720    -0.9090    18.9180 ca         1 VLG      -0.147000
      6 C07          3.3030     0.3320    19.5980 cp         1 VLG       0.045000
      7 C08          2.9230     0.3210    20.9640 ca         1 VLG      -0.195000
      8 C09          3.6210     1.6170    18.8940 cp         1 VLG      -0.094000
      9 C10          3.2950     1.8070    17.5290 ca         1 VLG      -0.123000
     10 C11          3.5920     3.0100    16.8670 ca         1 VLG      -0.094500
     11 C12          4.2300     4.0730    17.5470 ca         1 VLG      -0.119600
     12 C13          4.5590     3.8910    18.9100 ca         1 VLG      -0.094500
     13 C14          4.2600     2.6860    19.5690 ca         1 VLG      -0.123000
     14 C15          4.5530     5.3770    16.8320 c          1 VLG       0.713600
     15 O02          2.2480    -0.9380    22.9550 os         1 VLG      -0.355100
     16 O16          4.2510     5.4890    15.6510 o          1 VLG      -0.717500
     17 O17          5.1040     6.2700    17.4610 o          1 VLG      -0.717500
     18 H1           1.8310    -0.0200    24.7860 h1         1 VLG       0.036033
     19 H2           3.1020     0.7670    23.8280 h1         1 VLG       0.036033
     20 H3           1.3900     0.9340    23.3540 h1         1 VLG       0.036033
     21 H4           2.4730    -3.0350    21.4340 ha         1 VLG       0.112000
     22 H5           3.1380    -3.0580    19.0350 ha         1 VLG       0.101000
     23 H6           3.6720    -0.9400    17.8740 ha         1 VLG       0.119000
     24 H7           2.8520     1.2660    21.4900 ha         1 VLG       0.121000
     25 H8           2.7930     1.0170    16.9760 ha         1 VLG       0.088000
     26 H9           3.3210     3.1150    15.8180 ha         1 VLG       0.128000
     27 H10          5.0540     4.6860    19.4650 ha         1 VLG       0.128000
     28 H11          4.5410     2.5790    20.6130 ha         1 VLG       0.088000
@<TRIPOS>BOND
     1     1    15 1   
     2     1    18 1   
     3     1    19 1   
     4     1    20 1   
     5     2     3 ar  
     6     2     7 ar  
     7     2    15 1   
     8     3     4 ar  
     9     3    21 1   
    10     4     5 ar  
    11     4    22 1   
    12     5     6 ar  
    13     5    23 1   
    14     6     7 ar  
    15     6     8 1   
    16     7    24 1   
    17     8     9 ar  
    18     8    13 ar  
    19     9    10 ar  
    20     9    25 1   
    21    10    11 ar  
    22    10    26 1   
    23    11    12 ar  
    24    11    14 1   
    25    12    13 ar  
    26    12    27 1   
    27    13    28 1   
    28    14    16 1   
    29    14    17 1   
@<TRIPOS>SUBSTRUCTURE
     1 VLG         1 TEMP              0 ****  ****    0 ROOT
