@<TRIPOS>MOLECULE
VLL
   17    16     1     0     0
SMALL
abcg2


@<TRIPOS>ATOM
      1 N           42.4770    32.8160    31.1970 n8         1 VLL      -1.027200
      2 CA          43.5630    32.2850    32.0100 c3         1 VLL       0.025500
      3 CB          43.9530    33.2950    33.0980 c3         1 VLL       0.178500
      4 CG1         44.5290    34.5730    32.4910 c3         1 VLL      -0.125100
      5 C           43.2020    30.9120    32.6360 c          1 VLL       0.728000
      6 OXT         44.0670    30.4070    33.3780 o          1 VLL      -0.731000
      7 O           42.0990    30.4130    32.3310 o          1 VLL      -0.731000
      8 NG2         42.7980    33.5300    33.9560 n8         1 VLL      -0.960200
      9 HN1         42.8200    33.1470    30.3070 hn         1 VLL       0.389500
     10 HN2         41.8330    32.0560    31.0120 hn         1 VLL       0.389500
     11 HA          44.4640    32.1130    31.4020 h1         1 VLL       0.005700
     12 HB          44.7330    32.8280    33.7060 h1         1 VLL       0.070700
     13 HG11        44.8160    35.2800    33.2730 hc         1 VLL       0.015033
     14 HG12        45.4170    34.3680    31.8890 hc         1 VLL       0.015033
     15 HG13        43.7960    35.0690    31.8500 hc         1 VLL       0.015033
     16 HG21        43.0090    34.2660    34.6180 hn         1 VLL       0.372000
     17 HG22        42.0510    33.8860    33.3700 hn         1 VLL       0.372000
@<TRIPOS>BOND
     1     1     2 1   
     2     1     9 1   
     3     1    10 1   
     4     2     3 1   
     5     2     5 1   
     6     2    11 1   
     7     3     4 1   
     8     3     8 1   
     9     3    12 1   
    10     4    13 1   
    11     4    14 1   
    12     4    15 1   
    13     5     6 1   
    14     5     7 1   
    15     8    16 1   
    16     8    17 1   
@<TRIPOS>SUBSTRUCTURE
     1 VLL         1 TEMP              0 ****  ****    0 ROOT
