@<TRIPOS>MOLECULE
VLL
   17    16     1     0     0
SMALL
No Charge or Current Charge


@<TRIPOS>ATOM
      1 N           42.3330    32.7770    31.1920 n8         1 VLL      -1.027200
      2 CA          43.4500    32.2290    32.0720 c3         1 VLL       0.025500
      3 CB          43.9260    33.2740    33.1340 c3         1 VLL       0.178500
      4 CG1         44.5730    34.5310    32.5090 c3         1 VLL      -0.125100
      5 C           43.2510    30.8060    32.7520 c          1 VLL       0.728000
      6 OXT         44.2540    30.1880    33.0910 o          1 VLL      -0.731000
      7 O           42.1280    30.3130    32.8000 o          1 VLL      -0.731000
      8 NG2         42.8090    33.6810    34.0040 n8         1 VLL      -0.960200
      9 HN1         42.6780    33.6040    30.6900 hn         1 VLL       0.389500
     10 HN2         42.1300    32.0990    30.4480 hn         1 VLL       0.389500
     11 HA          44.2960    32.0850    31.3860 h1         1 VLL       0.005700
     12 HB          44.6960    32.8040    33.7650 h1         1 VLL       0.070700
     13 HG11        44.9510    35.2010    33.2910 hc         1 VLL       0.015033
     14 HG12        45.4210    34.2490    31.8740 hc         1 VLL       0.015033
     15 HG13        43.8570    35.0920    31.8960 hc         1 VLL       0.015033
     16 HG21        42.9060    34.6810    34.2030 hn         1 VLL       0.372000
     17 HG22        41.9680    33.6320    33.4160 hn         1 VLL       0.372000
@<TRIPOS>BOND
     1     1     2 1   
     2     1     9 1   
     3     1    10 1   
     4     2     3 1   
     5     2     5 1   
     6     2    11 1   
     7     3     4 1   
     8     3     8 1   
     9     3    12 1   
    10     4    13 1   
    11     4    14 1   
    12     4    15 1   
    13     5     6 1   
    14     5     7 1   
    15     8    16 1   
    16     8    17 1   
@<TRIPOS>SUBSTRUCTURE
     1 VLL         1 TEMP              0 ****  ****    0 ROOT
