@<TRIPOS>MOLECULE
VLM
   20    19     1     0     0
SMALL
No Charge or Current Charge


@<TRIPOS>ATOM
      1 N           -0.0750     1.6300     0.6810 n8         1 VLM      -0.877800
      2 CA          -0.0670     0.1480     0.4350 c3         1 VLM       0.085500
      3 C            1.3290    -0.3860    -0.0790 c          1 VLM       0.683100
      4 O            1.5740    -0.7100    -1.2320 o          1 VLM      -0.610100
      5 CB          -1.2780    -0.2620    -0.4730 c3         1 VLM      -0.094700
      6 CG1         -1.4140    -1.8030    -0.5990 c3         1 VLM      -0.090600
      7 CG2         -2.6310     0.3300     0.0090 c3         1 VLM      -0.090600
      8 NT           2.3150    -0.4380     0.8460 nt         1 VLM      -0.670000
      9 H            0.0670     2.1230    -0.2070 hn         1 VLM       0.350300
     10 H2          -1.0130     1.9140     0.9800 hn         1 VLM       0.350300
     11 HA          -0.2230    -0.3280     1.4120 h1         1 VLM       0.056700
     12 HB          -1.0920     0.1320    -1.4800 hc         1 VLM       0.067700
     13 HG11        -2.2620    -2.0650    -1.2440 hc         1 VLM       0.035533
     14 HG12        -0.5200    -2.2590    -1.0390 hc         1 VLM       0.035533
     15 HG13        -1.5820    -2.2610     0.3830 hc         1 VLM       0.035533
     16 HG21        -2.6400     1.4240    -0.0550 hc         1 VLM       0.035533
     17 HG22        -3.4560    -0.0350    -0.6140 hc         1 VLM       0.035533
     18 HG23        -2.8370     0.0410     1.0470 hc         1 VLM       0.035533
     19 HNT1         2.1300    -0.1260     1.7880 hn         1 VLM       0.313000
     20 HNT2         3.2340    -0.7490     0.5720 hn         1 VLM       0.313000
@<TRIPOS>BOND
     1     1     2 1   
     2     1     9 1   
     3     1    10 1   
     4     2     3 1   
     5     2     5 1   
     6     2    11 1   
     7     3     4 2   
     8     3     8 1   
     9     5     6 1   
    10     5     7 1   
    11     5    12 1   
    12     6    13 1   
    13     6    14 1   
    14     6    15 1   
    15     7    16 1   
    16     7    17 1   
    17     7    18 1   
    18     8    19 1   
    19     8    20 1   
@<TRIPOS>SUBSTRUCTURE
     1 VLM         1 TEMP              0 ****  ****    0 ROOT
