@<TRIPOS>MOLECULE
VLM
   20    19     1     0     0
SMALL
bcc


@<TRIPOS>ATOM
      1 N           -0.0580     1.8260     0.4410 n8         1 VLM      -0.877800
      2 CA          -0.0990     0.3720     0.4150 c3         1 VLM       0.085500
      3 C            1.2600    -0.0900    -0.0970 c          1 VLM       0.683100
      4 O            1.6710     0.2690    -1.1930 o          1 VLM      -0.610100
      5 CB          -1.2220    -0.2520    -0.4370 c3         1 VLM      -0.094700
      6 CG1         -1.1800    -1.7770    -0.3890 c3         1 VLM      -0.090600
      7 CG2         -2.5910     0.2460     0.0150 c3         1 VLM      -0.090600
      8 NT           1.9520    -0.8970     0.7160 nt         1 VLM      -0.670000
      9 H           -0.0380     2.1800    -0.5080 hn         1 VLM       0.350300
     10 H2          -0.9060     2.1850     0.8600 hn         1 VLM       0.350300
     11 HA          -0.2340     0.0310     1.4480 h1         1 VLM       0.056700
     12 HB          -1.0620     0.0660    -1.4740 hc         1 VLM       0.067700
     13 HG11        -1.9750    -2.2000    -1.0040 hc         1 VLM       0.035533
     14 HG12        -0.2370    -2.1870    -0.7530 hc         1 VLM       0.035533
     15 HG13        -1.3280    -2.1400     0.6320 hc         1 VLM       0.035533
     16 HG21        -2.7030     1.3250    -0.0960 hc         1 VLM       0.035533
     17 HG22        -3.3800    -0.2200    -0.5750 hc         1 VLM       0.035533
     18 HG23        -2.7710    -0.0060     1.0630 hc         1 VLM       0.035533
     19 HNT1         1.6020    -1.1670     1.6190 hn         1 VLM       0.313000
     20 HNT2         2.8590    -1.2430     0.4480 hn         1 VLM       0.313000
@<TRIPOS>BOND
     1     1     2 1   
     2     1     9 1   
     3     1    10 1   
     4     2     3 1   
     5     2     5 1   
     6     2    11 1   
     7     3     4 2   
     8     3     8 1   
     9     5     6 1   
    10     5     7 1   
    11     5    12 1   
    12     6    13 1   
    13     6    14 1   
    14     6    15 1   
    15     7    16 1   
    16     7    17 1   
    17     7    18 1   
    18     8    19 1   
    19     8    20 1   
@<TRIPOS>SUBSTRUCTURE
     1 VLM         1 TEMP              0 ****  ****    0 ROOT
