@<TRIPOS>MOLECULE
VLN
   25    25     1     0     0
SMALL
No Charge or Current Charge


@<TRIPOS>ATOM
      1 CAA        -62.7580    19.3450   -32.5300 c5         1 VLN       0.085300
      2 CAB        -65.1090    18.8730   -31.4630 c3         1 VLN       0.168600
      3 CAC        -61.7100    18.3880   -33.1770 c5         1 VLN       0.167300
      4 CAD        -62.6200    17.2850   -33.8540 c5         1 VLN       0.157500
      5 CAE        -62.1290    15.8220   -33.6010 c3         1 VLN       0.156800
      6 CAF        -63.7980    18.2780   -32.0660 c5         1 VLN       0.116500
      7 NAG        -64.0030    17.4920   -33.3160 n7         1 VLN      -0.819400
      8 NAH        -60.7970    15.5200   -34.1880 n8         1 VLN      -1.002200
      9 OAI        -63.2910    20.2760   -33.4980 oh         1 VLN      -0.642000
     10 OAJ        -60.8970    19.1200   -34.1000 oh         1 VLN      -0.628000
     11 OAK        -65.9750    17.8390   -30.9690 oh         1 VLN      -0.641000
     12 H1         -62.3290    19.8840   -31.6740 h1         1 VLN       0.042700
     13 H2         -64.8400    19.5540   -30.6450 h1         1 VLN       0.016200
     14 H3         -65.6270    19.4640   -32.2310 h1         1 VLN       0.016200
     15 H4         -61.0840    17.9360   -32.3950 h1         1 VLN       0.050700
     16 H5         -62.6400    17.4300   -34.9440 h1         1 VLN       0.070700
     17 H6         -62.8600    15.1240   -34.0320 h1         1 VLN       0.038700
     18 H7         -62.0840    15.6380   -32.5180 h1         1 VLN       0.038700
     19 H8         -63.3490    17.6430   -31.2870 h1         1 VLN       0.080700
     20 H9         -64.4930    18.1170   -33.9680 hn         1 VLN       0.415000
     21 H11        -60.5870    14.5240   -34.0470 hn         1 VLN       0.395000
     22 H12        -60.8510    15.6100   -35.2100 hn         1 VLN       0.395000
     23 H14        -63.8250    20.9390   -33.0060 ho         1 VLN       0.437000
     24 H15        -61.4830    19.8640   -34.3730 ho         1 VLN       0.444000
     25 H16        -66.8020    18.2770   -30.6710 ho         1 VLN       0.441000
@<TRIPOS>BOND
     1     1     3 1   
     2     1     6 1   
     3     1     9 1   
     4     1    12 1   
     5     2     6 1   
     6     2    11 1   
     7     2    13 1   
     8     2    14 1   
     9     3     4 1   
    10     3    10 1   
    11     3    15 1   
    12     4     5 1   
    13     4     7 1   
    14     4    16 1   
    15     5     8 1   
    16     5    17 1   
    17     5    18 1   
    18     6     7 1   
    19     6    19 1   
    20     7    20 1   
    21     8    21 1   
    22     8    22 1   
    23     9    23 1   
    24    10    24 1   
    25    11    25 1   
@<TRIPOS>SUBSTRUCTURE
     1 VLN         1 TEMP              0 ****  ****    0 ROOT
