@<TRIPOS>MOLECULE
VLN
   25    25     1     0     0
SMALL
abcg2


@<TRIPOS>ATOM
      1 CAA        -62.8140    19.3240   -32.5700 c5         1 VLN       0.085300
      2 CAB        -65.1140    18.8550   -31.5260 c3         1 VLN       0.168600
      3 CAC        -61.8360    18.4120   -33.3250 c5         1 VLN       0.167300
      4 CAD        -62.7280    17.2710   -33.8750 c5         1 VLN       0.157500
      5 CAE        -62.1520    15.8890   -33.5830 c3         1 VLN       0.156800
      6 CAF        -63.8290    18.2840   -32.0840 c5         1 VLN       0.116500
      7 NAG        -64.0380    17.4000   -33.2280 n7         1 VLN      -0.819400
      8 NAH        -60.8160    15.7390   -34.1340 n8         1 VLN      -1.002200
      9 OAI        -63.3680    20.2450   -33.4820 oh         1 VLN      -0.642000
     10 OAJ        -61.1210    19.0280   -34.3620 oh         1 VLN      -0.628000
     11 OAK        -65.8890    17.8060   -30.9920 oh         1 VLN      -0.641000
     12 H1         -62.3260    19.8410   -31.7330 h1         1 VLN       0.042700
     13 H2         -64.8590    19.6010   -30.7600 h1         1 VLN       0.016200
     14 H3         -65.6560    19.3860   -32.3210 h1         1 VLN       0.016200
     15 H4         -61.1520    17.9860   -32.5780 h1         1 VLN       0.050700
     16 H5         -62.8400    17.3860   -34.9580 h1         1 VLN       0.070700
     17 H6         -62.8690    15.1380   -33.9440 h1         1 VLN       0.038700
     18 H7         -62.0930    15.7620   -32.4970 h1         1 VLN       0.038700
     19 H8         -63.3420    17.7110   -31.2840 h1         1 VLN       0.080700
     20 H9         -64.6800    17.8550   -33.8670 hn         1 VLN       0.415000
     21 H11        -60.4430    14.8340   -33.8780 hn         1 VLN       0.395000
     22 H12        -60.8650    15.7400   -35.1450 hn         1 VLN       0.395000
     23 H14        -63.8760    20.8950   -32.9880 ho         1 VLN       0.437000
     24 H15        -60.5210    19.6740   -33.9770 ho         1 VLN       0.444000
     25 H16        -66.7150    18.1790   -30.6730 ho         1 VLN       0.441000
@<TRIPOS>BOND
     1     1     3 1   
     2     1     6 1   
     3     1     9 1   
     4     1    12 1   
     5     2     6 1   
     6     2    11 1   
     7     2    13 1   
     8     2    14 1   
     9     3     4 1   
    10     3    10 1   
    11     3    15 1   
    12     4     5 1   
    13     4     7 1   
    14     4    16 1   
    15     5     8 1   
    16     5    17 1   
    17     5    18 1   
    18     6     7 1   
    19     6    19 1   
    20     7    20 1   
    21     8    21 1   
    22     8    22 1   
    23     9    23 1   
    24    10    24 1   
    25    11    25 1   
@<TRIPOS>SUBSTRUCTURE
     1 VLN         1 TEMP              0 ****  ****    0 ROOT
