@<TRIPOS>MOLECULE
VLQ
   38    40     1     0     0
SMALL
abcg2


@<TRIPOS>ATOM
      1 C1         -13.6630     5.2960   -11.6500 ca         1 VLQ       0.101000
      2 C2         -14.6500     4.4980   -11.0420 ca         1 VLQ      -0.129000
      3 C3         -15.2480     4.9390    -9.8940 ca         1 VLQ      -0.074000
      4 C4         -13.2910     6.5040   -11.1300 ca         1 VLQ      -0.078000
      5 C5         -12.5640     9.1030    -9.9530 cp         1 VLQ      -0.010000
      6 C6         -12.8610     9.8180   -11.1120 ca         1 VLQ      -0.075500
      7 C7         -11.9110    10.6500   -11.6870 ca         1 VLQ      -0.123000
      8 C8         -10.6510    10.7710   -11.1130 ca         1 VLQ      -0.121000
      9 C9         -10.3480    10.0570    -9.9620 ca         1 VLQ      -0.123000
     10 C10        -11.3010     9.2300    -9.3820 ca         1 VLQ      -0.075500
     11 CL11       -12.9040     4.7120   -13.0960 cl         1 VLQ      -0.244000
     12 C12        -13.9070     6.9740    -9.9480 ca         1 VLQ      -0.061000
     13 C13        -14.8910     6.1780    -9.3180 ca         1 VLQ       0.258000
     14 N14        -15.5060     6.5580    -8.1770 nb         1 VLQ      -0.705000
     15 C15        -15.1850     7.6940    -7.6180 ca         1 VLQ       0.405300
     16 C16        -14.2030     8.5720    -8.1680 ca         1 VLQ      -0.131600
     17 C17        -13.5770     8.2140    -9.3360 cp         1 VLQ      -0.025000
     18 C18        -15.8730     8.0380    -6.3160 c3         1 VLQ      -0.113000
     19 C19        -17.3310     7.5910    -6.2840 c3         1 VLQ      -0.078600
     20 C20        -15.0900     7.4280    -5.1500 c3         1 VLQ      -0.078600
     21 C21        -13.8680     9.8930    -7.4860 c          1 VLQ       0.720600
     22 O22        -14.4980    10.8830    -7.8910 o          1 VLQ      -0.701500
     23 O23        -13.0000     9.8380    -6.5980 o          1 VLQ      -0.701500
     24 H24        -14.9250     3.5480   -11.4790 ha         1 VLQ       0.112000
     25 H25        -16.0060     4.3410    -9.4060 ha         1 VLQ       0.119000
     26 H26        -12.5270     7.0960   -11.6140 ha         1 VLQ       0.131000
     27 H27        -13.8420     9.7260   -11.5620 ha         1 VLQ       0.121500
     28 H28        -12.1550    11.2060   -12.5830 ha         1 VLQ       0.098000
     29 H29         -9.9090    11.4190   -11.5620 ha         1 VLQ       0.092000
     30 H30         -9.3680    10.1440    -9.5110 ha         1 VLQ       0.098000
     31 H31        -11.0610     8.6780    -8.4830 ha         1 VLQ       0.121500
     32 H32        -15.8590     9.1240    -6.1990 hc         1 VLQ       0.087700
     33 H33        -17.8010     7.9310    -5.3600 hc         1 VLQ       0.030533
     34 H35        -17.8980     8.0070    -7.1180 hc         1 VLQ       0.030533
     35 H34        -17.4210     6.5060    -6.3240 hc         1 VLQ       0.030533
     36 H37        -15.5490     7.6990    -4.1980 hc         1 VLQ       0.030533
     37 H38        -15.0810     6.3390    -5.2220 hc         1 VLQ       0.030533
     38 H36        -14.0590     7.7790    -5.1390 hc         1 VLQ       0.030533
@<TRIPOS>BOND
     1     1     2 ar  
     2     1     4 ar  
     3     1    11 1   
     4     2     3 ar  
     5     2    24 1   
     6     3    13 ar  
     7     3    25 1   
     8     4    12 ar  
     9     4    26 1   
    10     5     6 ar  
    11     5    10 ar  
    12     5    17 1   
    13     6     7 ar  
    14     6    27 1   
    15     7     8 ar  
    16     7    28 1   
    17     8     9 ar  
    18     8    29 1   
    19     9    10 ar  
    20     9    30 1   
    21    10    31 1   
    22    12    13 ar  
    23    12    17 ar  
    24    13    14 ar  
    25    14    15 ar  
    26    15    16 ar  
    27    15    18 1   
    28    16    17 ar  
    29    16    21 1   
    30    18    19 1   
    31    18    20 1   
    32    18    32 1   
    33    19    33 1   
    34    19    34 1   
    35    19    35 1   
    36    20    36 1   
    37    20    37 1   
    38    20    38 1   
    39    21    22 1   
    40    21    23 1   
@<TRIPOS>SUBSTRUCTURE
     1 VLQ         1 TEMP              0 ****  ****    0 ROOT
