@<TRIPOS>MOLECULE
VLQ
   38    40     1     0     0
SMALL
No Charge or Current Charge


@<TRIPOS>ATOM
      1 C1         -13.6460     5.2720   -11.6810 ca         1 VLQ       0.101000
      2 C2         -14.5860     4.4560   -11.0410 ca         1 VLQ      -0.129000
      3 C3         -15.1740     4.8820    -9.8380 ca         1 VLQ      -0.074000
      4 C4         -13.2950     6.5110   -11.1260 ca         1 VLQ      -0.078000
      5 C5         -12.5480     9.1210    -9.9860 cp         1 VLQ      -0.010000
      6 C6         -12.8680     9.8120   -11.1790 ca         1 VLQ      -0.075500
      7 C7         -11.9340    10.6670   -11.7890 ca         1 VLQ      -0.123000
      8 C8         -10.6640    10.8440   -11.2150 ca         1 VLQ      -0.121000
      9 C9         -10.3300    10.1670   -10.0300 ca         1 VLQ      -0.123000
     10 C10        -11.2650     9.3120    -9.4210 ca         1 VLQ      -0.075500
     11 Cl11       -12.9010     4.7390   -13.1820 cl         1 VLQ      -0.244000
     12 C12        -13.8880     6.9530    -9.9190 ca         1 VLQ      -0.061000
     13 C13        -14.8370     6.1230    -9.2620 ca         1 VLQ       0.258000
     14 N14        -15.4270     6.4830    -8.1000 nb         1 VLQ      -0.705000
     15 C15        -15.1140     7.6730    -7.5320 ca         1 VLQ       0.405300
     16 C16        -14.1780     8.5380    -8.1210 ca         1 VLQ      -0.131600
     17 C17        -13.5400     8.2060    -9.3440 cp         1 VLQ      -0.025000
     18 C18        -15.8380     7.9960    -6.2110 c3         1 VLQ      -0.113000
     19 C19        -17.3740     7.8080    -6.3050 c3         1 VLQ      -0.078600
     20 C20        -15.2410     7.1940    -5.0320 c3         1 VLQ      -0.078600
     21 C21        -13.8220     9.8560    -7.5170 c          1 VLQ       0.720600
     22 O22        -14.3650    10.8560    -7.9630 o          1 VLQ      -0.701500
     23 O23        -13.0640     9.8590    -6.5590 o          1 VLQ      -0.701500
     24 H24        -14.8580     3.4950   -11.4710 ha         1 VLQ       0.112000
     25 H25        -15.9010     4.2430    -9.3430 ha         1 VLQ       0.119000
     26 H26        -12.5560     7.1170   -11.6410 ha         1 VLQ       0.131000
     27 H27        -13.8500     9.6800   -11.6280 ha         1 VLQ       0.121500
     28 H28        -12.1940    11.1910   -12.7060 ha         1 VLQ       0.098000
     29 H29         -9.9410    11.5050   -11.6860 ha         1 VLQ       0.092000
     30 H30         -9.3470    10.3030    -9.5840 ha         1 VLQ       0.098000
     31 H31        -10.9970     8.7890    -8.5060 ha         1 VLQ       0.121500
     32 H32        -15.6910     9.0550    -5.9700 hc         1 VLQ       0.087700
     33 H33        -17.8610     8.1520    -5.3840 hc         1 VLQ       0.030533
     34 H35        -17.7820     8.3890    -7.1410 hc         1 VLQ       0.030533
     35 H34        -17.6390     6.7550    -6.4540 hc         1 VLQ       0.030533
     36 H37        -15.7130     7.4840    -4.0850 hc         1 VLQ       0.030533
     37 H38        -15.3910     6.1160    -5.1740 hc         1 VLQ       0.030533
     38 H36        -14.1640     7.3810    -4.9450 hc         1 VLQ       0.030533
@<TRIPOS>BOND
     1     1     2 ar  
     2     1     4 ar  
     3     1    11 1   
     4     2     3 ar  
     5     2    24 1   
     6     3    13 ar  
     7     3    25 1   
     8     4    12 ar  
     9     4    26 1   
    10     5     6 ar  
    11     5    10 ar  
    12     5    17 1   
    13     6     7 ar  
    14     6    27 1   
    15     7     8 ar  
    16     7    28 1   
    17     8     9 ar  
    18     8    29 1   
    19     9    10 ar  
    20     9    30 1   
    21    10    31 1   
    22    12    13 ar  
    23    12    17 ar  
    24    13    14 ar  
    25    14    15 ar  
    26    15    16 ar  
    27    15    18 1   
    28    16    17 ar  
    29    16    21 1   
    30    18    19 1   
    31    18    20 1   
    32    18    32 1   
    33    19    33 1   
    34    19    34 1   
    35    19    35 1   
    36    20    36 1   
    37    20    37 1   
    38    20    38 1   
    39    21    22 1   
    40    21    23 1   
@<TRIPOS>SUBSTRUCTURE
     1 VLQ         1 TEMP              0 ****  ****    0 ROOT
