@<TRIPOS>MOLECULE
VLS
   24    23     1     0     0
SMALL
abcg2


@<TRIPOS>ATOM
      1 C10        -28.0270   -28.2590    -0.0990 c          1 VLS       0.713000
      2 C02        -25.4530   -25.9820     2.4170 c3         1 VLS       0.153267
      3 C03        -24.8440   -27.1760     1.6700 c3         1 VLS       0.216200
      4 C04        -23.7940   -26.6800     0.6710 c3         1 VLS       0.153267
      5 C06        -24.1170   -28.1200     2.6420 c3         1 VLS       0.153267
      6 C09        -26.7000   -27.4760     0.0060 c3         1 VLS       0.027800
      7 N08        -25.8300   -28.0290     1.0230 n7         1 VLS      -0.883400
      8 O01        -26.3290   -26.4660     3.4130 oh         1 VLS      -0.661000
      9 O05        -24.2930   -25.6360    -0.1350 oh         1 VLS      -0.661000
     10 O07        -23.2280   -27.4010     3.4660 oh         1 VLS      -0.661000
     11 O11        -28.3390   -28.9870     0.8660 o          1 VLS      -0.737500
     12 O12        -28.6920   -28.0570    -1.1330 o          1 VLS      -0.737500
     13 H1         -24.6520   -25.3670     2.8460 h1         1 VLS       0.025200
     14 H2         -25.9880   -25.3410     1.7080 h1         1 VLS       0.025200
     15 H3         -23.4830   -27.5420     0.0650 h1         1 VLS       0.025200
     16 H4         -22.9140   -26.3430     1.2310 h1         1 VLS       0.025200
     17 H5         -24.8620   -28.6590     3.2400 h1         1 VLS       0.025200
     18 H6         -23.5900   -28.8750     2.0440 h1         1 VLS       0.025200
     19 H7         -26.2130   -27.4810    -0.9730 h1         1 VLS       0.019200
     20 H8         -26.9810   -26.4260     0.1860 h1         1 VLS       0.019200
     21 H9         -26.4380   -28.4400     1.7220 hn         1 VLS       0.457000
     22 H11        -26.7540   -25.7100     3.8260 ho         1 VLS       0.426000
     23 H12        -23.5770   -25.3350    -0.7020 ho         1 VLS       0.426000
     24 H13        -22.7210   -28.0340     3.9820 ho         1 VLS       0.426000
@<TRIPOS>BOND
     1     1     6 1   
     2     1    11 1   
     3     1    12 1   
     4     2     3 1   
     5     2     8 1   
     6     2    13 1   
     7     2    14 1   
     8     3     4 1   
     9     3     5 1   
    10     3     7 1   
    11     4     9 1   
    12     4    15 1   
    13     4    16 1   
    14     5    10 1   
    15     5    17 1   
    16     5    18 1   
    17     6     7 1   
    18     6    19 1   
    19     6    20 1   
    20     7    21 1   
    21     8    22 1   
    22     9    23 1   
    23    10    24 1   
@<TRIPOS>SUBSTRUCTURE
     1 VLS         1 TEMP              0 ****  ****    0 ROOT
