@<TRIPOS>MOLECULE
VLS
   24    23     1     0     0
SMALL
No Charge or Current Charge


@<TRIPOS>ATOM
      1 C10        -28.0540   -28.2920    -0.3480 c          1 VLS       0.713000
      2 C02        -25.4460   -26.0130     2.5700 c3         1 VLS       0.153267
      3 C03        -24.8240   -27.1860     1.7250 c3         1 VLS       0.216200
      4 C04        -23.8460   -26.6380     0.6080 c3         1 VLS       0.153267
      5 C06        -24.0070   -28.1440     2.6680 c3         1 VLS       0.153267
      6 C09        -26.7530   -27.4770     0.0100 c3         1 VLS       0.027800
      7 N08        -25.9490   -28.0200     1.1620 n7         1 VLS      -0.883400
      8 O01        -26.4190   -26.4980     3.5240 oh         1 VLS      -0.661000
      9 O05        -24.3910   -25.5550    -0.1760 oh         1 VLS      -0.661000
     10 O07        -22.9130   -27.4850     3.3380 oh         1 VLS      -0.661000
     11 O11        -28.8930   -28.4640     0.5290 o          1 VLS      -0.737500
     12 O12        -28.1680   -28.7490    -1.4800 o          1 VLS      -0.737500
     13 H1         -24.6430   -25.4710     3.0870 h1         1 VLS       0.025200
     14 H2         -25.9310   -25.2950     1.8950 h1         1 VLS       0.025200
     15 H3         -23.5600   -27.4710    -0.0490 h1         1 VLS       0.025200
     16 H4         -22.9230   -26.2860     1.0870 h1         1 VLS       0.025200
     17 H5         -24.6840   -28.5790     3.4150 h1         1 VLS       0.025200
     18 H6         -23.6180   -28.9790     2.0680 h1         1 VLS       0.025200
     19 H7         -26.1320   -27.4340    -0.8940 h1         1 VLS       0.019200
     20 H8         -27.0810   -26.4520     0.2300 h1         1 VLS       0.019200
     21 H9         -26.6050   -28.1220     1.9510 hn         1 VLS       0.457000
     22 H11        -26.7560   -25.7140     4.0100 ho         1 VLS       0.426000
     23 H12        -23.7300   -25.3460    -0.8720 ho         1 VLS       0.426000
     24 H13        -22.4930   -28.1520     3.9250 ho         1 VLS       0.426000
@<TRIPOS>BOND
     1     1     6 1   
     2     1    11 1   
     3     1    12 1   
     4     2     3 1   
     5     2     8 1   
     6     2    13 1   
     7     2    14 1   
     8     3     4 1   
     9     3     5 1   
    10     3     7 1   
    11     4     9 1   
    12     4    15 1   
    13     4    16 1   
    14     5    10 1   
    15     5    17 1   
    16     5    18 1   
    17     6     7 1   
    18     6    19 1   
    19     6    20 1   
    20     7    21 1   
    21     8    22 1   
    22     9    23 1   
    23    10    24 1   
@<TRIPOS>SUBSTRUCTURE
     1 VLS         1 TEMP              0 ****  ****    0 ROOT
