@<TRIPOS>MOLECULE
VLT
   27    27     1     0     0
SMALL
bcc


@<TRIPOS>ATOM
      1 N           -0.5280     1.3080    -0.8170 n8         1 VLT      -0.896800
      2 CA          -0.7660    -0.0860    -0.5050 c3         1 VLT       0.201700
      3 C2          -2.1960    -0.4840    -0.2510 c2         1 VLT      -0.263200
      4 C3           0.0900    -0.5040     0.7040 c3         1 VLT      -0.026100
      5 C4           1.5650    -0.3560     0.4690 ca         1 VLT      -0.075300
      6 C5           2.2550     0.7870     0.8570 ca         1 VLT      -0.084000
      7 C6           2.2910    -1.3600    -0.1700 ca         1 VLT      -0.084000
      8 C7           3.6160     0.9300     0.6250 ca         1 VLT      -0.196000
      9 C8           3.6490    -1.2350    -0.4160 ca         1 VLT      -0.196000
     10 C9           4.3220    -0.0830    -0.0170 ca         1 VLT       0.115100
     11 O1           5.6470    -0.0030    -0.2700 oh         1 VLT      -0.508100
     12 C10         -3.2440     0.3330    -0.1990 ce         1 VLT      -0.200200
     13 C           -4.6580    -0.1280     0.0740 c          1 VLT       0.909800
     14 O           -4.8560    -1.3480     0.2410 o          1 VLT      -0.832800
     15 OXT         -5.5210     0.7760     0.1080 o          1 VLT      -0.832800
     16 H           -1.0910     1.5810    -1.6130 hn         1 VLT       0.337300
     17 H1          -0.4170    -0.6780    -1.3620 h1         1 VLT       0.047700
     18 H3          -2.3560    -1.5480    -0.0890 ha         1 VLT       0.138000
     19 H4          -0.2180     0.0920     1.5690 hc         1 VLT       0.049200
     20 H5          -0.1420    -1.5440     0.9500 hc         1 VLT       0.049200
     21 H6           1.7240     1.5880     1.3580 ha         1 VLT       0.130500
     22 H7           1.7860    -2.2660    -0.4850 ha         1 VLT       0.130500
     23 H8           4.1250     1.8320     0.9470 ha         1 VLT       0.126500
     24 H9           4.1900    -2.0320    -0.9110 ha         1 VLT       0.126500
     25 H10          6.0000     0.8300     0.0610 ho         1 VLT       0.415000
     26 H11         -3.1070     1.3990    -0.3590 ha         1 VLT       0.083000
     27 H2          -0.8380     1.8880    -0.0460 hn         1 VLT       0.337300
@<TRIPOS>BOND
     1     1     2 1   
     2     1    16 1   
     3     1    27 1   
     4     2     3 1   
     5     2     4 1   
     6     2    17 1   
     7     3    12 2   
     8     3    18 1   
     9     4     5 1   
    10     4    19 1   
    11     4    20 1   
    12     5     6 ar  
    13     5     7 ar  
    14     6     8 ar  
    15     6    21 1   
    16     7     9 ar  
    17     7    22 1   
    18     8    10 ar  
    19     8    23 1   
    20     9    10 ar  
    21     9    24 1   
    22    10    11 1   
    23    11    25 1   
    24    12    13 1   
    25    12    26 1   
    26    13    14 1   
    27    13    15 1   
@<TRIPOS>SUBSTRUCTURE
     1 VLT         1 TEMP              0 ****  ****    0 ROOT
