@<TRIPOS>MOLECULE
VLT
   27    27     1     0     0
SMALL
No Charge or Current Charge


@<TRIPOS>ATOM
      1 N           -0.6110     1.1050    -1.3240 n8         1 VLT      -0.896800
      2 CA          -0.7550    -0.2220    -0.7190 c3         1 VLT       0.201700
      3 C2          -2.2300    -0.4880    -0.5410 c2         1 VLT      -0.263200
      4 C3           0.0360    -0.3480     0.6090 c3         1 VLT      -0.026100
      5 C4           1.5500    -0.2540     0.4330 ca         1 VLT      -0.075300
      6 C5           2.2500     0.8960     0.8540 ca         1 VLT      -0.084000
      7 C6           2.2640    -1.3260    -0.1400 ca         1 VLT      -0.084000
      8 C7           3.6460     0.9730     0.6990 ca         1 VLT      -0.196000
      9 C8           3.6600    -1.2450    -0.2930 ca         1 VLT      -0.196000
     10 C9           4.3490    -0.0980     0.1250 ca         1 VLT       0.115100
     11 O1           5.7000    -0.0290    -0.0260 oh         1 VLT      -0.508100
     12 C10         -3.0960     0.2210     0.2350 ce         1 VLT      -0.200200
     13 C           -4.5630    -0.0660     0.4020 c          1 VLT       0.909800
     14 O           -5.0630    -1.0120    -0.1940 o          1 VLT      -0.832800
     15 OXT         -5.2100     0.6670     1.1400 o          1 VLT      -0.832800
     16 H           -1.1690     1.1280    -2.1820 hn         1 VLT       0.337300
     17 H1          -0.3500    -0.9580    -1.4290 h1         1 VLT       0.047700
     18 H3          -2.5860    -1.3490    -1.1080 ha         1 VLT       0.138000
     19 H4          -0.3160     0.4130     1.3160 hc         1 VLT       0.049200
     20 H5          -0.2110    -1.3150     1.0660 hc         1 VLT       0.049200
     21 H6           1.7110     1.7300     1.2980 ha         1 VLT       0.130500
     22 H7           1.7370    -2.2210    -0.4650 ha         1 VLT       0.130500
     23 H8           4.1740     1.8660     1.0270 ha         1 VLT       0.126500
     24 H9           4.2060    -2.0750    -0.7360 ha         1 VLT       0.126500
     25 H10          6.0050     0.8360     0.3180 ho         1 VLT       0.415000
     26 H11         -2.7330     1.0760     0.8010 ha         1 VLT       0.083000
     27 H2          -1.0710     1.7830    -0.7120 hn         1 VLT       0.337300
@<TRIPOS>BOND
     1     1     2 1   
     2     1    16 1   
     3     1    27 1   
     4     2     3 1   
     5     2     4 1   
     6     2    17 1   
     7     3    12 2   
     8     3    18 1   
     9     4     5 1   
    10     4    19 1   
    11     4    20 1   
    12     5     6 ar  
    13     5     7 ar  
    14     6     8 ar  
    15     6    21 1   
    16     7     9 ar  
    17     7    22 1   
    18     8    10 ar  
    19     8    23 1   
    20     9    10 ar  
    21     9    24 1   
    22    10    11 1   
    23    11    25 1   
    24    12    13 1   
    25    12    26 1   
    26    13    14 1   
    27    13    15 1   
@<TRIPOS>SUBSTRUCTURE
     1 VLT         1 TEMP              0 ****  ****    0 ROOT
