@<TRIPOS>MOLECULE
VLV
   54    55     1     0     0
SMALL
No Charge or Current Charge


@<TRIPOS>ATOM
      1 C13         12.1060     0.3510    23.3110 c          1 VLV       0.598100
      2 C17         12.7890    -1.8860    21.1730 c3         1 VLV      -0.104100
      3 C20         20.3690     1.0270    22.8440 ca         1 VLV       0.037000
      4 C21         20.4100     2.1050    21.9320 ca         1 VLV      -0.121000
      5 C22         21.4490     2.2350    20.9950 ca         1 VLV      -0.061500
      6 C24         22.4420     0.1910    21.8280 ca         1 VLV      -0.061500
      7 C28         23.6610     2.5660    18.9540 c3         1 VLV      -0.195100
      8 C02         19.1240     0.1510    24.9600 cc         1 VLV       0.346300
      9 C03         19.2500     0.9280    23.8180 cd         1 VLV      -0.246000
     10 C05         17.0650     0.9640    24.9230 cd         1 VLV       0.556300
     11 C08         14.7630     1.8150    24.8510 c          1 VLV       0.653100
     12 C11         12.2730     2.1500    25.1030 c3         1 VLV       0.126000
     13 C12         11.8520     1.8170    23.6530 c3         1 VLV      -0.195400
     14 C16         13.7890    -1.1370    22.0890 c3         1 VLV       0.136400
     15 C18         14.1690    -2.0100    23.3110 c3         1 VLV      -0.104100
     16 C19         15.0700    -0.8130    21.2870 c3         1 VLV      -0.104100
     17 C23         22.4850     1.2780    20.9310 ca         1 VLV      -0.180600
     18 C25         21.4020     0.0670    22.7650 ca         1 VLV      -0.121000
     19 N06         17.8980     0.1820    25.5770 nc         1 VLV      -0.723000
     20 N07         15.7840     1.0840    25.3770 ns         1 VLV      -0.488400
     21 N10         13.5740     1.5870    25.4940 ns         1 VLV      -0.508900
     22 N15         13.2260     0.1440    22.5290 ns         1 VLV      -0.505900
     23 O09         14.8730     2.5670    23.9020 o          1 VLV      -0.625100
     24 O14         11.3630    -0.5420    23.6890 o          1 VLV      -0.615100
     25 O27         24.5090     0.5440    19.8910 o          1 VLV      -0.526100
     26 S04         17.7250     1.7470    23.4890 ss         1 VLV       0.068600
     27 H171        11.8860    -2.1830    21.7180 hc         1 VLV       0.044700
     28 H173        12.4850    -1.2540    20.3300 hc         1 VLV       0.044700
     29 H172        13.2440    -2.7970    20.7660 hc         1 VLV       0.044700
     30 H211        19.6450     2.8760    21.9510 ha         1 VLV       0.121000
     31 H221        21.4320     3.0920    20.3260 ha         1 VLV       0.124000
     32 H241        23.2140    -0.5760    21.8010 ha         1 VLV       0.124000
     33 H283        24.5290     2.5300    18.2860 hc         1 VLV       0.061367
     34 H282        22.7220     2.5960    18.3900 hc         1 VLV       0.061367
     35 H281        23.6320     3.5020    19.5220 hc         1 VLV       0.061367
     36 H013        19.9330    -0.8400    26.6990 hc         1 VLV       0.052700
     37 H012        20.2540    -1.6700    25.1720 hc         1 VLV       0.052700
     38 H011        21.1520    -0.1900    25.6050 hc         1 VLV       0.052700
     39 H112        12.2980     3.2400    25.2380 h1         1 VLV       0.070200
     40 H111        11.5150     1.7500    25.7900 h1         1 VLV       0.070200
     41 H121        12.4200     2.4620    22.9750 hc         1 VLV       0.076200
     42 H122        10.7820     2.0310    23.5500 hc         1 VLV       0.076200
     43 H182        14.8450    -1.4680    23.9830 hc         1 VLV       0.044700
     44 H181        13.2850    -2.3070    23.8860 hc         1 VLV       0.044700
     45 H183        14.6760    -2.9280    22.9890 hc         1 VLV       0.044700
     46 H193        15.7980    -0.2780    21.9090 hc         1 VLV       0.044700
     47 H191        15.5480    -1.7310    20.9230 hc         1 VLV       0.044700
     48 H192        14.8410    -0.1850    20.4170 hc         1 VLV       0.044700
     49 H251        21.4030    -0.8100    23.3980 ha         1 VLV       0.121000
     50 H071        15.5510     0.5340    26.1870 hn         1 VLV       0.338500
     51 H101        13.5900     0.9510    26.2810 hn         1 VLV       0.325500
     52 H151        13.7510     0.9800    22.3020 hn         1 VLV       0.313500
     53 C26         23.6210     1.3880    19.9300 c          1 VLV       0.584700
     54 C01         20.1740    -0.6830    25.6410 c3         1 VLV      -0.125400
@<TRIPOS>BOND
     1     1    13 1   
     2     1    22 1   
     3     1    24 2   
     4     2    14 1   
     5     2    27 1   
     6     2    28 1   
     7     2    29 1   
     8     3     4 ar  
     9     3     9 1   
    10     3    18 ar  
    11     4     5 ar  
    12     4    30 1   
    13     5    17 ar  
    14     5    31 1   
    15     6    17 ar  
    16     6    18 ar  
    17     6    32 1   
    18     7    33 1   
    19     7    34 1   
    20     7    35 1   
    21     7    53 1   
    22     8     9 2   
    23     8    19 1   
    24     8    54 1   
    25     9    26 1   
    26    10    19 2   
    27    10    20 1   
    28    10    26 1   
    29    11    20 1   
    30    11    21 1   
    31    11    23 2   
    32    12    13 1   
    33    12    21 1   
    34    12    39 1   
    35    12    40 1   
    36    13    41 1   
    37    13    42 1   
    38    14    15 1   
    39    14    16 1   
    40    14    22 1   
    41    15    43 1   
    42    15    44 1   
    43    15    45 1   
    44    16    46 1   
    45    16    47 1   
    46    16    48 1   
    47    17    53 1   
    48    18    49 1   
    49    20    50 1   
    50    21    51 1   
    51    22    52 1   
    52    25    53 2   
    53    36    54 1   
    54    37    54 1   
    55    38    54 1   
@<TRIPOS>SUBSTRUCTURE
     1 VLV         1 TEMP              0 ****  ****    0 ROOT
