@<TRIPOS>MOLECULE
VLV
   54    55     1     0     0
SMALL
bcc


@<TRIPOS>ATOM
      1 C13         11.9320     0.6070    23.1230 c          1 VLV       0.665100
      2 C17         11.1790    -2.2150    22.0070 c3         1 VLV      -0.104100
      3 C20         20.8520     1.2060    22.6700 ca         1 VLV       0.037000
      4 C21         21.0750     2.5480    22.3460 ca         1 VLV      -0.139000
      5 C22         22.1800     2.9280    21.6060 ca         1 VLV      -0.079500
      6 C24         22.8860     0.6420    21.4870 ca         1 VLV      -0.079500
      7 C28         24.5060     3.8150    20.0370 c3         1 VLV      -0.195100
      8 C02         19.5140    -0.1630    24.3780 cc         1 VLV       0.411600
      9 C03         19.6760     0.8150    23.4370 cd         1 VLV      -0.166400
     10 C05         17.4640     0.6450    24.4090 cd         1 VLV       0.556300
     11 C08         15.2890     1.6940    24.3100 c          1 VLV       0.787100
     12 C11         12.9930     2.5110    24.3300 c3         1 VLV       0.126000
     13 C12         12.4310     2.0320    22.9900 c3         1 VLV      -0.195400
     14 C16         12.5280    -1.7720    22.5740 c3         1 VLV       0.136400
     15 C18         12.6920    -2.2540    24.0170 c3         1 VLV      -0.104100
     16 C19         13.6470    -2.3620    21.7180 c3         1 VLV      -0.104100
     17 C23         23.1080     1.9830    21.1690 ca         1 VLV      -0.180600
     18 C25         21.7770     0.2580    22.2150 ca         1 VLV      -0.139000
     19 N06         18.2580    -0.2460    24.9140 nc         1 VLV      -0.723000
     20 N07         16.1580     0.7410    24.7980 ns         1 VLV      -0.555400
     21 N10         14.0530     1.6650    24.8370 ns         1 VLV      -0.575900
     22 N15         12.6790    -0.3150    22.4970 ns         1 VLV      -0.572900
     23 O09         15.6580     2.4980    23.4660 o          1 VLV      -0.625100
     24 O14         10.9450     0.3540    23.8030 o          1 VLV      -0.615100
     25 O27         25.0980     1.5160    20.0090 o          1 VLV      -0.526100
     26 S04         18.1750     1.6760    23.2220 ss         1 VLV      -0.076300
     27 H171        10.3470    -1.8400    22.6000 hc         1 VLV       0.044700
     28 H173        11.0560    -1.8650    20.9810 hc         1 VLV       0.044700
     29 H172        11.1210    -3.3040    21.9990 hc         1 VLV       0.044700
     30 H211        20.3890     3.3130    22.6870 ha         1 VLV       0.139000
     31 H221        22.3120     3.9780    21.3820 ha         1 VLV       0.142000
     32 H241        23.5820    -0.1140    21.1480 ha         1 VLV       0.142000
     33 H283        25.4210     3.9480    19.4650 hc         1 VLV       0.061367
     34 H282        23.6660     4.1960    19.4540 hc         1 VLV       0.061367
     35 H281        24.5650     4.4200    20.9430 hc         1 VLV       0.061367
     36 H013        20.3800    -1.3120    25.9450 hc         1 VLV       0.052700
     37 H012        20.5360    -2.0500    24.3580 hc         1 VLV       0.052700
     38 H011        21.5600    -0.6870    24.7920 hc         1 VLV       0.052700
     39 H112        13.3540     3.5340    24.2310 h1         1 VLV       0.070200
     40 H111        12.2060     2.5230    25.0820 h1         1 VLV       0.070200
     41 H121        13.1880     2.1360    22.2110 hc         1 VLV       0.076200
     42 H122        11.5930     2.6750    22.7140 hc         1 VLV       0.076200
     43 H182        13.6590    -1.9460    24.4180 hc         1 VLV       0.044700
     44 H181        11.9110    -1.8630    24.6660 hc         1 VLV       0.044700
     45 H183        12.6440    -3.3440    24.0550 hc         1 VLV       0.044700
     46 H193        14.6300    -2.0680    22.0930 hc         1 VLV       0.044700
     47 H191        13.5950    -3.4510    21.7340 hc         1 VLV       0.044700
     48 H192        13.5640    -2.0380    20.6790 hc         1 VLV       0.044700
     49 H251        21.6150    -0.7940    22.4080 ha         1 VLV       0.139000
     50 H071        15.8570     0.0620    25.4840 hn         1 VLV       0.338500
     51 H101        13.8040     0.9410    25.4910 hn         1 VLV       0.325500
     52 H151        13.4760     0.0230    21.9810 hn         1 VLV       0.313500
     53 C26         24.3070     2.3620    20.3740 c          1 VLV       0.584700
     54 C01         20.5570    -1.0980    24.8920 c3         1 VLV      -0.125400
@<TRIPOS>BOND
     1     1    13 1   
     2     1    22 1   
     3     1    24 2   
     4     2    14 1   
     5     2    27 1   
     6     2    28 1   
     7     2    29 1   
     8     3     4 ar  
     9     3     9 1   
    10     3    18 ar  
    11     4     5 ar  
    12     4    30 1   
    13     5    17 ar  
    14     5    31 1   
    15     6    17 ar  
    16     6    18 ar  
    17     6    32 1   
    18     7    33 1   
    19     7    34 1   
    20     7    35 1   
    21     7    53 1   
    22     8     9 2   
    23     8    19 1   
    24     8    54 1   
    25     9    26 1   
    26    10    19 2   
    27    10    20 1   
    28    10    26 1   
    29    11    20 1   
    30    11    21 1   
    31    11    23 2   
    32    12    13 1   
    33    12    21 1   
    34    12    39 1   
    35    12    40 1   
    36    13    41 1   
    37    13    42 1   
    38    14    15 1   
    39    14    16 1   
    40    14    22 1   
    41    15    43 1   
    42    15    44 1   
    43    15    45 1   
    44    16    46 1   
    45    16    47 1   
    46    16    48 1   
    47    17    53 1   
    48    18    49 1   
    49    20    50 1   
    50    21    51 1   
    51    22    52 1   
    52    25    53 2   
    53    36    54 1   
    54    37    54 1   
    55    38    54 1   
@<TRIPOS>SUBSTRUCTURE
     1 VLV         1 TEMP              0 ****  ****    0 ROOT
