@<TRIPOS>MOLECULE
VLW
   61    66     1     0     0
SMALL
No Charge or Current Charge


@<TRIPOS>ATOM
      1 C1         -19.2720   -23.3650     5.4790 ca         1 VLW      -0.200000
      2 C2         -18.4830   -22.2360     5.7700 ca         1 VLW       0.339000
      3 C3         -17.3610   -22.3890     6.6040 ca         1 VLW      -0.186000
      4 C11        -16.0990   -27.4580     8.6740 c5         1 VLW       0.035600
      5 C12        -17.2960   -28.2080     8.0460 c5         1 VLW       0.095800
      6 C15        -14.2860   -25.0820     9.4560 cx         1 VLW      -0.039400
      7 C16        -13.0880   -25.5140     8.6520 ca         1 VLW      -0.092300
      8 C17        -14.1090   -24.0610    10.5620 cx         1 VLW      -0.110900
      9 C18        -14.4460   -25.4870    10.9090 cx         1 VLW      -0.110900
     10 C19        -12.5770   -26.8230     8.7610 ca         1 VLW      -0.063000
     11 C20        -11.4620   -27.2200     8.0030 ca         1 VLW      -0.172000
     12 C21        -10.8430   -26.3050     7.1240 ca         1 VLW       0.144100
     13 C22        -11.3500   -25.0010     7.0170 ca         1 VLW      -0.172000
     14 C23        -12.4650   -24.6050     7.7750 ca         1 VLW      -0.063000
     15 C25         -9.1520   -27.9460     6.3890 c3         1 VLW       0.147900
     16 C26        -19.5630   -20.8200     3.9600 c6         1 VLW       0.206300
     17 C27        -19.3520   -19.4250     3.2840 c6         1 VLW       0.154800
     18 C29        -18.7830   -18.4210     5.4400 c6         1 VLW       0.154800
     19 C30        -18.9820   -19.7950     6.1610 c6         1 VLW       0.206300
     20 C4         -17.0290   -23.6430     7.1440 ca         1 VLW       0.057000
     21 C5         -17.8190   -24.7550     6.8520 ca         1 VLW      -0.112000
     22 C6         -18.9450   -24.6210     6.0170 ca         1 VLW      -0.018000
     23 C7         -15.8600   -23.7850     8.0080 cc         1 VLW      -0.226000
     24 C8         -15.4930   -25.0080     8.5760 cd         1 VLW       0.041700
     25 N9         -16.3110   -26.1100     8.2410 na         1 VLW      -0.104000
     26 C10        -17.4220   -26.0190     7.4360 cc         1 VLW       0.075000
     27 N13        -18.0370   -27.1560     7.2640 n2         1 VLW      -0.365200
     28 N14        -18.7950   -20.9630     5.2390 nh         1 VLW      -0.802400
     29 O24         -9.7470   -26.6360     6.3540 os         1 VLW      -0.339100
     30 N28        -19.6220   -18.2830     4.2100 n3         1 VLW      -0.712600
     31 C31        -19.4620   -16.9670     3.5550 c3         1 VLW       0.151100
     32 H1         -20.1500   -23.2770     4.8460 ha         1 VLW       0.115000
     33 H2         -16.7350   -21.5300     6.8240 ha         1 VLW       0.114000
     34 H3         -15.1440   -27.8400     8.2930 h1         1 VLW       0.056200
     35 H5         -17.9480   -28.6390     8.8170 h1         1 VLW       0.059700
     36 H6         -16.9630   -29.0180     7.3830 h1         1 VLW       0.059700
     37 H7         -13.1000   -23.7140    10.7750 hc         1 VLW       0.079200
     38 H8         -14.8850   -23.3130    10.7060 hc         1 VLW       0.079200
     39 H9         -15.4490   -25.6890    11.2760 hc         1 VLW       0.079200
     40 H10        -13.6650   -26.0880    11.3670 hc         1 VLW       0.079200
     41 H11        -13.0440   -27.5370     9.4350 ha         1 VLW       0.116000
     42 H12        -11.0950   -28.2360     8.1100 ha         1 VLW       0.123500
     43 H13        -10.8770   -24.2930     6.3420 ha         1 VLW       0.123500
     44 H14        -12.8460   -23.5910     7.6810 ha         1 VLW       0.116000
     45 H15         -8.2970   -27.9940     5.7040 h1         1 VLW       0.041033
     46 H16         -8.7920   -28.1840     7.3990 h1         1 VLW       0.041033
     47 H17         -9.8770   -28.7120     6.0830 h1         1 VLW       0.041033
     48 H18        -20.6370   -20.9560     4.1550 h1         1 VLW       0.046450
     49 H19        -19.2590   -21.5980     3.2440 h1         1 VLW       0.046450
     50 H20        -18.3170   -19.3730     2.9160 h1         1 VLW       0.039950
     51 H21        -20.0070   -19.3630     2.4020 h1         1 VLW       0.039950
     52 H22        -17.7180   -18.3180     5.1810 h1         1 VLW       0.039950
     53 H23        -19.0170   -17.6170     6.1530 h1         1 VLW       0.039950
     54 H24        -19.9960   -19.8240     6.5860 h1         1 VLW       0.046450
     55 H25        -18.2790   -19.8450     7.0040 h1         1 VLW       0.046450
     56 H26        -19.5660   -25.4840     5.7860 ha         1 VLW       0.132000
     57 H27        -15.2530   -22.9130     8.2230 ha         1 VLW       0.125000
     58 H30        -19.7130   -16.1550     4.2510 h1         1 VLW       0.031700
     59 H31        -18.4280   -16.8210     3.2140 h1         1 VLW       0.031700
     60 H32        -20.1270   -16.8840     2.6850 h1         1 VLW       0.031700
     61 H4         -16.1030   -27.5290     9.7690 h1         1 VLW       0.056200
@<TRIPOS>BOND
     1     1     2 ar  
     2     1    22 ar  
     3     1    32 1   
     4     2     3 ar  
     5     2    28 1   
     6     3    20 ar  
     7     3    33 1   
     8     4     5 1   
     9     4    25 1   
    10     4    34 1   
    11     4    61 1   
    12     5    27 1   
    13     5    35 1   
    14     5    36 1   
    15     6     7 1   
    16     6     8 1   
    17     6     9 1   
    18     6    24 1   
    19     7    10 ar  
    20     7    14 ar  
    21     8     9 1   
    22     8    37 1   
    23     8    38 1   
    24     9    39 1   
    25     9    40 1   
    26    10    11 ar  
    27    10    41 1   
    28    11    12 ar  
    29    11    42 1   
    30    12    13 ar  
    31    12    29 1   
    32    13    14 ar  
    33    13    43 1   
    34    14    44 1   
    35    15    29 1   
    36    15    45 1   
    37    15    46 1   
    38    15    47 1   
    39    16    17 1   
    40    16    28 1   
    41    16    48 1   
    42    16    49 1   
    43    17    30 1   
    44    17    50 1   
    45    17    51 1   
    46    18    19 1   
    47    18    30 1   
    48    18    52 1   
    49    18    53 1   
    50    19    28 1   
    51    19    54 1   
    52    19    55 1   
    53    20    21 ar  
    54    20    23 1   
    55    21    22 ar  
    56    21    26 1   
    57    22    56 1   
    58    23    24 2   
    59    23    57 1   
    60    24    25 1   
    61    25    26 1   
    62    26    27 2   
    63    30    31 1   
    64    31    58 1   
    65    31    59 1   
    66    31    60 1   
@<TRIPOS>SUBSTRUCTURE
     1 VLW         1 TEMP              0 ****  ****    0 ROOT
