@<TRIPOS>MOLECULE
VLW
   61    66     1     0     0
SMALL
abcg2


@<TRIPOS>ATOM
      1 C1         -19.1360   -23.2410     5.3160 ca         1 VLW      -0.200000
      2 C2         -18.4400   -22.0720     5.6980 ca         1 VLW       0.339000
      3 C3         -17.3490   -22.2210     6.5580 ca         1 VLW      -0.186000
      4 C11        -15.8650   -27.3330     8.3170 c5         1 VLW       0.035600
      5 C12        -17.0810   -28.0440     7.6850 c5         1 VLW       0.095800
      6 C15        -14.2770   -25.0420     9.2710 cx         1 VLW      -0.039400
      7 C16        -13.0760   -25.6460     8.6050 ca         1 VLW      -0.092300
      8 C17        -14.0350   -24.0150    10.3430 cx         1 VLW      -0.110900
      9 C18        -14.5740   -25.3580    10.7110 cx         1 VLW      -0.110900
     10 C19        -12.5110   -26.8450     9.0110 ca         1 VLW      -0.063000
     11 C20        -11.3780   -27.3690     8.3930 ca         1 VLW      -0.172000
     12 C21        -10.7890   -26.6850     7.3350 ca         1 VLW       0.144100
     13 C22        -11.3560   -25.4810     6.9060 ca         1 VLW      -0.172000
     14 C23        -12.4780   -24.9780     7.5330 ca         1 VLW      -0.063000
     15 C25         -9.0930   -28.3170     7.0550 c3         1 VLW       0.147900
     16 C26        -19.8550   -20.7240     4.2310 c6         1 VLW       0.206300
     17 C27        -19.7820   -19.3880     3.5120 c6         1 VLW       0.154800
     18 C29        -18.7410   -18.3820     5.3810 c6         1 VLW       0.154800
     19 C30        -18.7980   -19.6930     6.1380 c6         1 VLW       0.206300
     20 C4         -16.9480   -23.4700     7.0320 ca         1 VLW       0.057000
     21 C5         -17.6540   -24.6200     6.6340 ca         1 VLW      -0.112000
     22 C6         -18.7430   -24.4780     5.7760 ca         1 VLW      -0.018000
     23 C7         -15.8210   -23.6130     7.9140 cc         1 VLW      -0.226000
     24 C8         -15.4460   -24.8320     8.3680 cd         1 VLW       0.041700
     25 N9         -16.1460   -25.9420     7.9820 na         1 VLW      -0.104000
     26 C10        -17.2430   -25.9120     7.1400 cc         1 VLW       0.075000
     27 N13        -17.7960   -27.0440     6.9060 n2         1 VLW      -0.365200
     28 N14        -18.8020   -20.8240     5.2220 nh         1 VLW      -0.802400
     29 O24         -9.6900   -27.0950     6.6740 os         1 VLW      -0.339100
     30 N28        -19.8420   -18.2860     4.4470 n3         1 VLW      -0.712600
     31 C31        -19.8600   -17.0100     3.7680 c3         1 VLW       0.151100
     32 H1         -20.0050   -23.1850     4.6780 ha         1 VLW       0.115000
     33 H2         -16.7670   -21.3600     6.8610 ha         1 VLW       0.114000
     34 H3         -14.9210   -27.6500     7.8710 h1         1 VLW       0.056200
     35 H5         -17.7390   -28.4610     8.4530 h1         1 VLW       0.059700
     36 H6         -16.7690   -28.8810     7.0570 h1         1 VLW       0.059700
     37 H7         -13.0020   -23.7990    10.5860 hc         1 VLW       0.079200
     38 H8         -14.6980   -23.1620    10.4070 hc         1 VLW       0.079200
     39 H9         -15.6150   -25.4210    11.0020 hc         1 VLW       0.079200
     40 H10        -13.9280   -26.0510    11.2340 hc         1 VLW       0.079200
     41 H11        -12.9490   -27.4050     9.8270 ha         1 VLW       0.116000
     42 H12        -10.9780   -28.3070     8.7530 ha         1 VLW       0.123500
     43 H13        -10.9060   -24.9440     6.0800 ha         1 VLW       0.123500
     44 H14        -12.8970   -24.0400     7.1890 ha         1 VLW       0.116000
     45 H15         -8.2410   -28.4650     6.3960 h1         1 VLW       0.041033
     46 H16         -8.7370   -28.2950     8.0890 h1         1 VLW       0.041033
     47 H17         -9.7780   -29.1610     6.9380 h1         1 VLW       0.041033
     48 H18        -20.8510   -20.8470     4.6810 h1         1 VLW       0.046450
     49 H19        -19.7310   -21.5090     3.4850 h1         1 VLW       0.046450
     50 H20        -18.8590   -19.3570     2.9060 h1         1 VLW       0.039950
     51 H21        -20.6250   -19.3220     2.8210 h1         1 VLW       0.039950
     52 H22        -17.7640   -18.2990     4.8710 h1         1 VLW       0.039950
     53 H23        -18.8030   -17.5610     6.0980 h1         1 VLW       0.039950
     54 H24        -19.7010   -19.7100     6.7640 h1         1 VLW       0.046450
     55 H25        -17.9400   -19.7450     6.8040 h1         1 VLW       0.046450
     56 H26        -19.3010   -25.3550     5.4760 ha         1 VLW       0.132000
     57 H27        -15.2700   -22.7360     8.2220 ha         1 VLW       0.125000
     58 H30        -19.9440   -16.2010     4.4960 h1         1 VLW       0.031700
     59 H31        -18.9570   -16.8260     3.1650 h1         1 VLW       0.031700
     60 H32        -20.7230   -16.9510     3.1030 h1         1 VLW       0.031700
     61 H4         -15.7960   -27.4770     9.3940 h1         1 VLW       0.056200
@<TRIPOS>BOND
     1     1     2 ar  
     2     1    22 ar  
     3     1    32 1   
     4     2     3 ar  
     5     2    28 1   
     6     3    20 ar  
     7     3    33 1   
     8     4     5 1   
     9     4    25 1   
    10     4    34 1   
    11     4    61 1   
    12     5    27 1   
    13     5    35 1   
    14     5    36 1   
    15     6     7 1   
    16     6     8 1   
    17     6     9 1   
    18     6    24 1   
    19     7    10 ar  
    20     7    14 ar  
    21     8     9 1   
    22     8    37 1   
    23     8    38 1   
    24     9    39 1   
    25     9    40 1   
    26    10    11 ar  
    27    10    41 1   
    28    11    12 ar  
    29    11    42 1   
    30    12    13 ar  
    31    12    29 1   
    32    13    14 ar  
    33    13    43 1   
    34    14    44 1   
    35    15    29 1   
    36    15    45 1   
    37    15    46 1   
    38    15    47 1   
    39    16    17 1   
    40    16    28 1   
    41    16    48 1   
    42    16    49 1   
    43    17    30 1   
    44    17    50 1   
    45    17    51 1   
    46    18    19 1   
    47    18    30 1   
    48    18    52 1   
    49    18    53 1   
    50    19    28 1   
    51    19    54 1   
    52    19    55 1   
    53    20    21 ar  
    54    20    23 1   
    55    21    22 ar  
    56    21    26 1   
    57    22    56 1   
    58    23    24 2   
    59    23    57 1   
    60    24    25 1   
    61    25    26 1   
    62    26    27 2   
    63    30    31 1   
    64    31    58 1   
    65    31    59 1   
    66    31    60 1   
@<TRIPOS>SUBSTRUCTURE
     1 VLW         1 TEMP              0 ****  ****    0 ROOT
