@<TRIPOS>MOLECULE
VLX
   35    35     1     0     0
SMALL
No Charge or Current Charge


@<TRIPOS>ATOM
      1 C10        124.4800   118.4590   108.2080 c3         1 VLX      -0.091100
      2 C7         123.2920   118.0500   107.3130 c3         1 VLX      -0.075400
      3 C5         120.3910   123.1110   107.2780 c3         1 VLX       0.045700
      4 C4         121.9040   118.2000   107.9830 c3         1 VLX      -0.066400
      5 C3         120.0790   119.7800   108.9740 c5         1 VLX      -0.163400
      6 C2         121.4320   120.6650   107.2050 c5         1 VLX       0.102000
      7 C1         121.5100   119.6440   108.3880 c5         1 VLX      -0.077700
      8 C6         119.8100   121.2770   108.8840 c          1 VLX       0.561000
      9 C8         121.3840   123.4560   106.1240 c3         1 VLX      -0.082400
     10 C9         118.9140   123.4760   106.9160 c          1 VLX       0.592100
     11 N1         120.5200   121.6970   107.7560 n          1 VLX      -0.404800
     12 N2         118.5660   124.7830   106.9920 nt         1 VLX      -0.598000
     13 O1         119.3000   122.0240   109.7070 o          1 VLX      -0.558000
     14 O2         118.0740   122.6560   106.5750 o          1 VLX      -0.609100
     15 H1         125.4280   118.2400   107.7030 hc         1 VLX       0.032367
     16 H2         124.4570   119.5320   108.4310 hc         1 VLX       0.032367
     17 H3         124.4610   117.9050   109.1550 hc         1 VLX       0.032367
     18 H4         123.3190   118.6370   106.3870 hc         1 VLX       0.040200
     19 H5         123.4230   117.0020   107.0190 hc         1 VLX       0.040200
     20 H6         120.6560   123.7550   108.1260 h1         1 VLX       0.071700
     21 H7         121.1510   117.7990   107.2930 hc         1 VLX       0.045200
     22 H8         121.8730   117.5540   108.8700 hc         1 VLX       0.045200
     23 H9         119.3780   119.2770   108.2980 hc         1 VLX       0.078700
     24 H10        119.9460   119.4040   109.9940 hc         1 VLX       0.078700
     25 H11        120.9970   120.2120   106.3040 h1         1 VLX       0.054200
     26 H12        122.4270   121.0550   106.9550 h1         1 VLX       0.054200
     27 H13        122.2370   119.9910   109.1320 hc         1 VLX       0.059700
     28 H14        122.2410   125.0970   104.9730 hc         1 VLX       0.038033
     29 H15        120.4840   125.2040   105.1450 hc         1 VLX       0.038033
     30 H16        121.5440   125.6040   106.5240 hc         1 VLX       0.038033
     31 H17        121.1670   122.8220   105.2550 hc         1 VLX       0.055200
     32 H18        122.4000   123.2090   106.4520 hc         1 VLX       0.055200
     33 H19        117.6200   125.0550   106.7680 hn         1 VLX       0.315000
     34 H20        119.2440   125.4740   107.2770 hn         1 VLX       0.315000
     35 C11        121.4090   124.9320   105.6680 c3         1 VLX      -0.093100
@<TRIPOS>BOND
     1     1     2 1   
     2     1    15 1   
     3     1    16 1   
     4     1    17 1   
     5     2     4 1   
     6     2    18 1   
     7     2    19 1   
     8     3     9 1   
     9     3    10 1   
    10     3    11 1   
    11     3    20 1   
    12     4     7 1   
    13     4    21 1   
    14     4    22 1   
    15     5     7 1   
    16     5     8 1   
    17     5    23 1   
    18     5    24 1   
    19     6     7 1   
    20     6    11 1   
    21     6    25 1   
    22     6    26 1   
    23     7    27 1   
    24     8    11 1   
    25     8    13 2   
    26     9    31 1   
    27     9    32 1   
    28     9    35 1   
    29    10    12 1   
    30    10    14 2   
    31    12    33 1   
    32    12    34 1   
    33    28    35 1   
    34    29    35 1   
    35    30    35 1   
@<TRIPOS>SUBSTRUCTURE
     1 VLX         1 TEMP              0 ****  ****    0 ROOT
