@<TRIPOS>MOLECULE
VLX
   35    35     1     0     0
SMALL
abcg2


@<TRIPOS>ATOM
      1 C10        124.3040   118.3610   107.9040 c3         1 VLX      -0.091100
      2 C7         123.0040   118.0870   107.1580 c3         1 VLX      -0.075400
      3 C5         120.4900   123.1560   107.3260 c3         1 VLX       0.045700
      4 C4         121.7480   118.3210   107.9930 c3         1 VLX      -0.066400
      5 C3         120.2740   120.0020   109.2460 c5         1 VLX      -0.163400
      6 C2         121.4860   120.7800   107.3360 c5         1 VLX       0.102000
      7 C1         121.5650   119.7530   108.4700 c5         1 VLX      -0.077700
      8 C6         119.9500   121.4500   108.9650 c          1 VLX       0.561000
      9 C8         121.6150   123.5430   106.3650 c3         1 VLX      -0.082400
     10 C9         119.1420   123.1630   106.6000 c          1 VLX       0.592100
     11 N1         120.7140   121.8590   107.9280 n          1 VLX      -0.404800
     12 N2         118.3980   124.2600   106.7860 nt         1 VLX      -0.598000
     13 O1         119.1240   122.1440   109.5360 o          1 VLX      -0.558000
     14 O2         118.8080   122.2340   105.8820 o          1 VLX      -0.609100
     15 H1         125.1690   118.1020   107.2930 hc         1 VLX       0.032367
     16 H2         124.4060   119.4120   108.1780 hc         1 VLX       0.032367
     17 H3         124.3600   117.7730   108.8220 hc         1 VLX       0.032367
     18 H4         122.9670   118.6970   106.2500 hc         1 VLX       0.040200
     19 H5         123.0010   117.0480   106.8160 hc         1 VLX       0.040200
     20 H6         120.4730   123.8940   108.1340 h1         1 VLX       0.071700
     21 H7         120.8680   118.0310   107.4090 hc         1 VLX       0.045200
     22 H8         121.7660   117.6590   108.8660 hc         1 VLX       0.045200
     23 H9         119.4500   119.3920   108.8580 hc         1 VLX       0.078700
     24 H10        120.3480   119.8050   110.3150 hc         1 VLX       0.078700
     25 H11        120.9780   120.3670   106.4570 h1         1 VLX       0.054200
     26 H12        122.4730   121.1180   107.0240 h1         1 VLX       0.054200
     27 H13        122.4030   120.0340   109.1150 hc         1 VLX       0.059700
     28 H14        122.3530   125.2210   105.2320 hc         1 VLX       0.038033
     29 H15        120.6050   125.0660   105.1710 hc         1 VLX       0.038033
     30 H16        121.3840   125.6880   106.6240 hc         1 VLX       0.038033
     31 H17        121.6600   122.8340   105.5350 hc         1 VLX       0.055200
     32 H18        122.5610   123.4600   106.9040 hc         1 VLX       0.055200
     33 H19        117.5180   124.3690   106.3070 hn         1 VLX       0.315000
     34 H20        118.6790   124.9970   107.4110 hn         1 VLX       0.315000
     35 C11        121.4740   124.9580   105.8190 c3         1 VLX      -0.093100
@<TRIPOS>BOND
     1     1     2 1   
     2     1    15 1   
     3     1    16 1   
     4     1    17 1   
     5     2     4 1   
     6     2    18 1   
     7     2    19 1   
     8     3     9 1   
     9     3    10 1   
    10     3    11 1   
    11     3    20 1   
    12     4     7 1   
    13     4    21 1   
    14     4    22 1   
    15     5     7 1   
    16     5     8 1   
    17     5    23 1   
    18     5    24 1   
    19     6     7 1   
    20     6    11 1   
    21     6    25 1   
    22     6    26 1   
    23     7    27 1   
    24     8    11 1   
    25     8    13 2   
    26     9    31 1   
    27     9    32 1   
    28     9    35 1   
    29    10    12 1   
    30    10    14 2   
    31    12    33 1   
    32    12    34 1   
    33    28    35 1   
    34    29    35 1   
    35    30    35 1   
@<TRIPOS>SUBSTRUCTURE
     1 VLX         1 TEMP              0 ****  ****    0 ROOT
