@<TRIPOS>MOLECULE
VLY
   44    47     1     0     0
SMALL
No Charge or Current Charge


@<TRIPOS>ATOM
      1 C1          37.4950   -16.1980    16.9300 c          1 VLY       0.625600
      2 N2          38.6460   -16.1120    16.1360 n          1 VLY      -0.256500
      3 C3          38.5780   -16.5170    14.7890 cc         1 VLY       0.552800
      4 N4          37.4970   -16.9550    14.1310 nd         1 VLY      -0.671100
      5 C5          36.3580   -17.0300    14.9090 cd         1 VLY       0.152400
      6 C6          36.3540   -16.6960    16.2030 cc         1 VLY      -0.338600
      7 C7          35.0490   -16.9040    16.6640 cc         1 VLY       0.323900
      8 C12         39.8480   -15.5140    16.6710 ca         1 VLY       0.014600
      9 C13         40.5020   -14.4550    16.0030 ca         1 VLY      -0.080000
     10 C14         41.6920   -13.9110    16.5170 ca         1 VLY      -0.106500
     11 C15         42.2470   -14.4250    17.7000 ca         1 VLY      -0.096000
     12 C16         41.6130   -15.4850    18.3670 ca         1 VLY      -0.106500
     13 C17         40.4220   -16.0280    17.8540 ca         1 VLY      -0.080000
     14 C19         39.7960   -18.0760    12.7140 c3         1 VLY       0.128600
     15 O11         37.4440   -15.8660    18.1070 o          1 VLY      -0.510000
     16 N8          34.2260   -17.3600    15.7310 nd         1 VLY      -0.516800
     17 N9          35.0570   -17.4440    14.6110 na         1 VLY       0.132800
     18 S18         40.0460   -16.5950    13.8010 ss         1 VLY      -0.226200
     19 C26         39.7890   -19.3690    13.5590 c3         1 VLY      -0.082100
     20 C20         40.8780   -18.1040    11.6350 ca         1 VLY      -0.087300
     21 C25         42.2420   -18.2200    11.9800 ca         1 VLY      -0.093500
     22 C24         43.2290   -18.2440    10.9800 ca         1 VLY      -0.110000
     23 C23         42.8640   -18.1510     9.6270 ca         1 VLY      -0.100000
     24 C22         41.5090   -18.0320     9.2750 ca         1 VLY      -0.110000
     25 C21         40.5200   -18.0080    10.2740 ca         1 VLY      -0.093500
     26 H1          34.6680   -16.7340    17.6630 h4         1 VLY       0.052100
     27 H2          34.2930   -17.0500    12.6920 h1         1 VLY       0.060033
     28 H3          35.3380   -18.4960    12.8090 h1         1 VLY       0.060033
     29 H4          33.6730   -18.5440    13.4590 h1         1 VLY       0.060033
     30 H5          40.0770   -14.0350    15.0940 ha         1 VLY       0.125500
     31 H6          42.1820   -13.0900    15.9990 ha         1 VLY       0.118500
     32 H7          43.1690   -14.0040    18.0970 ha         1 VLY       0.116000
     33 H8          42.0450   -15.8890    19.2800 ha         1 VLY       0.118500
     34 H9          39.9510   -16.8600    18.3730 ha         1 VLY       0.125500
     35 H10         38.8220   -17.9810    12.2160 h1         1 VLY       0.094700
     36 H11         38.9550   -19.3690    14.2710 hc         1 VLY       0.048700
     37 H12         39.6780   -20.2460    12.9110 hc         1 VLY       0.048700
     38 H13         40.7210   -19.4760    14.1260 hc         1 VLY       0.048700
     39 H14         42.5400   -18.2880    13.0240 ha         1 VLY       0.116500
     40 H15         44.2780   -18.3330    11.2540 ha         1 VLY       0.116000
     41 H16         43.6280   -18.1690     8.8530 ha         1 VLY       0.115000
     42 H17         41.2240   -17.9580     8.2270 ha         1 VLY       0.116000
     43 H18         39.4750   -17.9150     9.9870 ha         1 VLY       0.116500
     44 C10         34.5580   -17.9130    13.3120 c3         1 VLY       0.077900
@<TRIPOS>BOND
     1     1     2 1   
     2     1     6 1   
     3     1    15 2   
     4     2     3 1   
     5     2     8 1   
     6     3     4 2   
     7     3    18 1   
     8     4     5 1   
     9     5     6 2   
    10     5    17 1   
    11     6     7 1   
    12     7    16 2   
    13     7    26 1   
    14     8     9 ar  
    15     8    13 ar  
    16     9    10 ar  
    17     9    30 1   
    18    10    11 ar  
    19    10    31 1   
    20    11    12 ar  
    21    11    32 1   
    22    12    13 ar  
    23    12    33 1   
    24    13    34 1   
    25    14    18 1   
    26    14    19 1   
    27    14    20 1   
    28    14    35 1   
    29    16    17 1   
    30    17    44 1   
    31    19    36 1   
    32    19    37 1   
    33    19    38 1   
    34    20    21 ar  
    35    20    25 ar  
    36    21    22 ar  
    37    21    39 1   
    38    22    23 ar  
    39    22    40 1   
    40    23    24 ar  
    41    23    41 1   
    42    24    25 ar  
    43    24    42 1   
    44    25    43 1   
    45    27    44 1   
    46    28    44 1   
    47    29    44 1   
@<TRIPOS>SUBSTRUCTURE
     1 VLY         1 TEMP              0 ****  ****    0 ROOT
