@<TRIPOS>MOLECULE
VLY
   44    47     1     0     0
SMALL
abcg2


@<TRIPOS>ATOM
      1 C1          37.4470   -15.7250    16.7600 c          1 VLY       0.625600
      2 N2          38.6090   -16.0580    16.0210 n          1 VLY      -0.256500
      3 C3          38.5990   -16.8590    14.9060 cc         1 VLY       0.552800
      4 N4          37.5380   -17.3940    14.3990 nd         1 VLY      -0.671100
      5 C5          36.4020   -17.1090    15.0640 cd         1 VLY       0.152400
      6 C6          36.2800   -16.3190    16.1980 cc         1 VLY      -0.338600
      7 C7          34.9030   -16.3350    16.4920 cc         1 VLY       0.323900
      8 C12         39.8470   -15.5130    16.4870 ca         1 VLY       0.014600
      9 C13         40.2710   -14.2810    16.0120 ca         1 VLY      -0.080000
     10 C14         41.4750   -13.7580    16.4600 ca         1 VLY      -0.106500
     11 C15         42.2420   -14.4650    17.3780 ca         1 VLY      -0.096000
     12 C16         41.8060   -15.6960    17.8510 ca         1 VLY      -0.106500
     13 C17         40.6030   -16.2250    17.4060 ca         1 VLY      -0.080000
     14 C19         39.7480   -18.2590    12.7910 c3         1 VLY       0.128600
     15 O11         37.5280   -15.0130    17.7390 o          1 VLY      -0.510000
     16 N8          34.2560   -17.0660    15.6170 nd         1 VLY      -0.516800
     17 N9          35.1720   -17.5370    14.7520 na         1 VLY       0.132800
     18 S18         40.1640   -17.1060    14.1610 ss         1 VLY      -0.226200
     19 C26         39.5380   -19.6780    13.2910 c3         1 VLY      -0.082100
     20 C20         40.8770   -18.1240    11.8030 ca         1 VLY      -0.087300
     21 C25         42.1620   -18.5700    12.1100 ca         1 VLY      -0.093500
     22 C24         43.1930   -18.4350    11.1910 ca         1 VLY      -0.110000
     23 C23         42.9520   -17.8550     9.9510 ca         1 VLY      -0.100000
     24 C22         41.6760   -17.4090     9.6380 ca         1 VLY      -0.110000
     25 C21         40.6470   -17.5390    10.5610 ca         1 VLY      -0.093500
     26 H1          34.3770   -15.8460    17.2970 h4         1 VLY       0.052100
     27 H2          34.1720   -17.8120    12.9380 h1         1 VLY       0.060033
     28 H3          35.6760   -18.7240    13.1400 h1         1 VLY       0.060033
     29 H4          34.2170   -19.2300    14.0070 h1         1 VLY       0.060033
     30 H5          39.6650   -13.7410    15.2960 ha         1 VLY       0.125500
     31 H6          41.8120   -12.7980    16.0930 ha         1 VLY       0.118500
     32 H7          43.1810   -14.0550    17.7270 ha         1 VLY       0.116000
     33 H8          42.4010   -16.2470    18.5670 ha         1 VLY       0.118500
     34 H9          40.2550   -17.1860    17.7640 ha         1 VLY       0.125500
     35 H10         38.8270   -17.8850    12.3420 h1         1 VLY       0.094700
     36 H11         38.7100   -19.7240    13.9960 hc         1 VLY       0.048700
     37 H12         39.2970   -20.3270    12.4480 hc         1 VLY       0.048700
     38 H13         40.4280   -20.0730    13.7790 hc         1 VLY       0.048700
     39 H14         42.3690   -19.0250    13.0720 ha         1 VLY       0.116500
     40 H15         44.1850   -18.7820    11.4450 ha         1 VLY       0.116000
     41 H16         43.7570   -17.7510     9.2350 ha         1 VLY       0.115000
     42 H17         41.4780   -16.9560     8.6750 ha         1 VLY       0.116000
     43 H18         39.6530   -17.1880    10.3120 ha         1 VLY       0.116500
     44 C10         34.7810   -18.3730    13.6450 c3         1 VLY       0.077900
@<TRIPOS>BOND
     1     1     2 1   
     2     1     6 1   
     3     1    15 2   
     4     2     3 1   
     5     2     8 1   
     6     3     4 2   
     7     3    18 1   
     8     4     5 1   
     9     5     6 2   
    10     5    17 1   
    11     6     7 1   
    12     7    16 2   
    13     7    26 1   
    14     8     9 ar  
    15     8    13 ar  
    16     9    10 ar  
    17     9    30 1   
    18    10    11 ar  
    19    10    31 1   
    20    11    12 ar  
    21    11    32 1   
    22    12    13 ar  
    23    12    33 1   
    24    13    34 1   
    25    14    18 1   
    26    14    19 1   
    27    14    20 1   
    28    14    35 1   
    29    16    17 1   
    30    17    44 1   
    31    19    36 1   
    32    19    37 1   
    33    19    38 1   
    34    20    21 ar  
    35    20    25 ar  
    36    21    22 ar  
    37    21    39 1   
    38    22    23 ar  
    39    22    40 1   
    40    23    24 ar  
    41    23    41 1   
    42    24    25 ar  
    43    24    42 1   
    44    25    43 1   
    45    27    44 1   
    46    28    44 1   
    47    29    44 1   
@<TRIPOS>SUBSTRUCTURE
     1 VLY         1 TEMP              0 ****  ****    0 ROOT
