@<TRIPOS>MOLECULE
VLZ
   49    48     1     0     0
SMALL
No Charge or Current Charge


@<TRIPOS>ATOM
      1 O01          3.4720    10.8940    17.0730 os         1 VLZ      -0.445100
      2 O02          1.6140    11.0420    18.4170 o          1 VLZ      -0.489000
      3 O03          4.8240     8.6380    19.7120 oh         1 VLZ      -0.658000
      4 O04          6.0240     9.7450    16.3560 oh         1 VLZ      -0.658000
      5 C05         -0.1220    16.2340    14.5690 c3         1 VLZ      -0.077400
      6 C06         -0.8590    17.3840    15.2970 c3         1 VLZ      -0.073400
      7 C07          0.1630    15.0260    15.4880 c3         1 VLZ      -0.078400
      8 C08         -1.1740    18.6160    14.4100 c3         1 VLZ      -0.070400
      9 C09          0.9070    13.8800    14.7640 c3         1 VLZ      -0.075400
     10 C10         -2.5600    18.6140    13.7140 c3         1 VLZ      -0.073400
     11 C11          1.1340    12.6170    15.6290 c3         1 VLZ      -0.066400
     12 C12         -2.8020    17.4640    12.7110 c3         1 VLZ      -0.076400
     13 C13          2.0740    12.8330    16.8420 c3         1 VLZ      -0.139400
     14 C14         -4.1210    17.6180    11.9230 c3         1 VLZ      -0.076400
     15 C15         -4.3700    16.4650    10.9320 c3         1 VLZ      -0.088100
     16 C16          2.3550    11.5160    17.5680 c          1 VLZ       0.592100
     17 C17          3.8910     9.6290    17.6470 c3         1 VLZ       0.175300
     18 C18          4.5290     9.8800    19.0470 c3         1 VLZ       0.155600
     19 C19          4.8600     8.9400    16.6390 c3         1 VLZ       0.155600
     20 H031         5.2380     8.8640    20.5760 ho         1 VLZ       0.446500
     21 H041         6.5510     9.2600    15.6820 ho         1 VLZ       0.446500
     22 H051         0.8290    16.6140    14.1740 hc         1 VLZ       0.038700
     23 H052        -0.7060    15.8920    13.7080 hc         1 VLZ       0.038700
     24 H062        -1.7870    17.0080    15.7470 hc         1 VLZ       0.037200
     25 H061        -0.2270    17.7160    16.1300 hc         1 VLZ       0.037200
     26 H072        -0.7860    14.6450    15.8860 hc         1 VLZ       0.037700
     27 H071         0.7580    15.3670    16.3440 hc         1 VLZ       0.037700
     28 H081        -0.3850    18.7450    13.6590 hc         1 VLZ       0.037700
     29 H082        -1.1310    19.5090    15.0460 hc         1 VLZ       0.037700
     30 H091         1.8740    14.2470    14.3990 hc         1 VLZ       0.041200
     31 H092         0.3290    13.5890    13.8770 hc         1 VLZ       0.041200
     32 H102        -2.6740    19.5700    13.1870 hc         1 VLZ       0.035700
     33 H101        -3.3450    18.5910    14.4810 hc         1 VLZ       0.035700
     34 H112         0.1660    12.2380    15.9800 hc         1 VLZ       0.053200
     35 H111         1.5610    11.8340    14.9890 hc         1 VLZ       0.053200
     36 H121        -2.8330    16.5120    13.2530 hc         1 VLZ       0.038200
     37 H122        -1.9630    17.4150    12.0050 hc         1 VLZ       0.038200
     38 H131         3.0190    13.2390    16.4620 hc         1 VLZ       0.073200
     39 H132         1.6080    13.5310    17.5470 hc         1 VLZ       0.073200
     40 H141        -4.1080    18.5660    11.3710 hc         1 VLZ       0.035700
     41 H142        -4.9610    17.6700    12.6280 hc         1 VLZ       0.035700
     42 H153        -5.3150    16.6170    10.3970 hc         1 VLZ       0.031033
     43 H151        -3.5620    16.4090    10.1920 hc         1 VLZ       0.031033
     44 H152        -4.4240    15.5050    11.4590 hc         1 VLZ       0.031033
     45 H171         3.0260     8.9650    17.7730 h1         1 VLZ       0.079700
     46 H181         5.4450    10.4740    18.9250 h1         1 VLZ       0.035700
     47 H182         3.8390    10.4700    19.6630 h1         1 VLZ       0.035700
     48 H192         5.1630     7.9670    17.0480 h1         1 VLZ       0.035700
     49 H191         4.3070     8.7410    15.7110 h1         1 VLZ       0.035700
@<TRIPOS>BOND
     1     1    16 1   
     2     1    17 1   
     3     2    16 2   
     4     3    18 1   
     5     3    20 1   
     6     4    19 1   
     7     4    21 1   
     8     5     6 1   
     9     5     7 1   
    10     5    22 1   
    11     5    23 1   
    12     6     8 1   
    13     6    24 1   
    14     6    25 1   
    15     7     9 1   
    16     7    26 1   
    17     7    27 1   
    18     8    10 1   
    19     8    28 1   
    20     8    29 1   
    21     9    11 1   
    22     9    30 1   
    23     9    31 1   
    24    10    12 1   
    25    10    32 1   
    26    10    33 1   
    27    11    13 1   
    28    11    34 1   
    29    11    35 1   
    30    12    14 1   
    31    12    36 1   
    32    12    37 1   
    33    13    16 1   
    34    13    38 1   
    35    13    39 1   
    36    14    15 1   
    37    14    40 1   
    38    14    41 1   
    39    15    42 1   
    40    15    43 1   
    41    15    44 1   
    42    17    18 1   
    43    17    19 1   
    44    17    45 1   
    45    18    46 1   
    46    18    47 1   
    47    19    48 1   
    48    19    49 1   
@<TRIPOS>SUBSTRUCTURE
     1 VLZ         1 TEMP              0 ****  ****    0 ROOT
