@<TRIPOS>MOLECULE
VLZ
   49    48     1     0     0
SMALL
bcc


@<TRIPOS>ATOM
      1 O01          3.6430    10.9640    16.9280 os         1 VLZ      -0.421900
      2 O02          1.6320    10.0940    16.4630 o          1 VLZ      -0.538000
      3 O03          4.0120     9.1510    20.0280 oh         1 VLZ      -0.595800
      4 O04          6.2390    10.7110    17.9680 oh         1 VLZ      -0.595800
      5 C05          0.0370    15.9940    14.1670 c3         1 VLZ      -0.077400
      6 C06         -0.4190    17.1070    15.1070 c3         1 VLZ      -0.073400
      7 C07          0.3340    14.6930    14.9000 c3         1 VLZ      -0.078400
      8 C08         -0.7860    18.4230    14.4090 c3         1 VLZ      -0.070400
      9 C09          0.7840    13.5720    13.9690 c3         1 VLZ      -0.075400
     10 C10         -2.2680    18.5810    14.0740 c3         1 VLZ      -0.073400
     11 C11          1.0220    12.2380    14.6720 c3         1 VLZ      -0.066400
     12 C12         -2.8410    17.5330    13.1280 c3         1 VLZ      -0.076400
     13 C13          2.2080    12.2760    15.6240 c3         1 VLZ      -0.139400
     14 C14         -4.2940    17.8010    12.7540 c3         1 VLZ      -0.076400
     15 C15         -4.8590    16.7560    11.8020 c3         1 VLZ      -0.088100
     16 C16          2.4350    10.9870    16.3650 c          1 VLZ       0.641100
     17 C17          4.0120     9.8610    17.7670 c3         1 VLZ       0.152100
     18 C18          3.6320    10.2220    19.1990 c3         1 VLZ       0.132400
     19 C19          5.4860     9.5970    17.5560 c3         1 VLZ       0.132400
     20 H031         3.8120     9.3890    20.9380 ho         1 VLZ       0.407500
     21 H041         7.1710    10.4830    17.9060 ho         1 VLZ       0.407500
     22 H051         0.9340    16.3230    13.6320 hc         1 VLZ       0.038700
     23 H052        -0.7210    15.8120    13.3990 hc         1 VLZ       0.038700
     24 H062        -1.2750    16.7580    15.6950 hc         1 VLZ       0.037200
     25 H061         0.3830    17.2880    15.8290 hc         1 VLZ       0.037200
     26 H072        -0.5640    14.3690    15.4390 hc         1 VLZ       0.037700
     27 H071         1.0950    14.8820    15.6640 hc         1 VLZ       0.037700
     28 H081        -0.1920    18.5290    13.4950 hc         1 VLZ       0.037700
     29 H082        -0.4980    19.2620    15.0470 hc         1 VLZ       0.037700
     30 H091         1.6940    13.8760    13.4410 hc         1 VLZ       0.041200
     31 H092         0.0210    13.4280    13.1990 hc         1 VLZ       0.041200
     32 H102        -2.4230    19.5730    13.6360 hc         1 VLZ       0.035700
     33 H101        -2.8450    18.5730    15.0060 hc         1 VLZ       0.035700
     34 H112         0.1170    11.9510    15.2140 hc         1 VLZ       0.053200
     35 H111         1.1910    11.4610    13.9210 hc         1 VLZ       0.053200
     36 H121        -2.7740    16.5400    13.5830 hc         1 VLZ       0.038200
     37 H122        -2.2340    17.4920    12.2170 hc         1 VLZ       0.038200
     38 H131         3.1220    12.5520    15.0900 hc         1 VLZ       0.073200
     39 H132         2.0700    13.0520    16.3850 hc         1 VLZ       0.073200
     40 H141        -4.3750    18.7940    12.3010 hc         1 VLZ       0.035700
     41 H142        -4.9010    17.8340    13.6650 hc         1 VLZ       0.035700
     42 H153        -5.9010    16.9600    11.5530 hc         1 VLZ       0.031033
     43 H151        -4.2950    16.7310    10.8670 hc         1 VLZ       0.031033
     44 H152        -4.8130    15.7580    12.2390 hc         1 VLZ       0.031033
     45 H171         3.4720     8.9590    17.4640 h1         1 VLZ       0.079700
     46 H181         4.1250    11.1580    19.4840 h1         1 VLZ       0.035700
     47 H182         2.5500    10.4000    19.2420 h1         1 VLZ       0.035700
     48 H192         5.7460     8.6910    18.1150 h1         1 VLZ       0.035700
     49 H191         5.6450     9.3650    16.4940 h1         1 VLZ       0.035700
@<TRIPOS>BOND
     1     1    16 1   
     2     1    17 1   
     3     2    16 2   
     4     3    18 1   
     5     3    20 1   
     6     4    19 1   
     7     4    21 1   
     8     5     6 1   
     9     5     7 1   
    10     5    22 1   
    11     5    23 1   
    12     6     8 1   
    13     6    24 1   
    14     6    25 1   
    15     7     9 1   
    16     7    26 1   
    17     7    27 1   
    18     8    10 1   
    19     8    28 1   
    20     8    29 1   
    21     9    11 1   
    22     9    30 1   
    23     9    31 1   
    24    10    12 1   
    25    10    32 1   
    26    10    33 1   
    27    11    13 1   
    28    11    34 1   
    29    11    35 1   
    30    12    14 1   
    31    12    36 1   
    32    12    37 1   
    33    13    16 1   
    34    13    38 1   
    35    13    39 1   
    36    14    15 1   
    37    14    40 1   
    38    14    41 1   
    39    15    42 1   
    40    15    43 1   
    41    15    44 1   
    42    17    18 1   
    43    17    19 1   
    44    17    45 1   
    45    18    46 1   
    46    18    47 1   
    47    19    48 1   
    48    19    49 1   
@<TRIPOS>SUBSTRUCTURE
     1 VLZ         1 TEMP              0 ****  ****    0 ROOT
