@<TRIPOS>MOLECULE
VM1
   20    21     1     0     0
SMALL
No Charge or Current Charge


@<TRIPOS>ATOM
      1 O1A          2.9070    -2.0530     0.3260 o          1 VM1      -0.713500
      2 C1B          3.1700    -0.8660     0.2000 c          1 VM1       0.719600
      3 O1C          4.3130    -0.4340     0.1970 o          1 VM1      -0.713500
      4 S1D         -2.3520    -1.3750    -0.5220 ss         1 VM1       0.212000
      5 C1E         -4.0060    -0.8420    -0.2190 cc         1 VM1      -0.280000
      6 C1F         -4.0400     0.4710     0.1820 cd         1 VM1      -0.131000
      7 C1G          2.0340     0.1050     0.0430 ca         1 VM1      -0.182600
      8 C1H          0.6860    -0.3180     0.0450 ca         1 VM1      -0.047000
      9 C1I         -0.3350     0.6410    -0.1010 ca         1 VM1      -0.117000
     10 C1J         -1.7440     0.2280    -0.1110 cc         1 VM1      -0.098000
     11 C1K         -2.7580     1.0820     0.2480 cd         1 VM1      -0.167000
     12 C1L          2.3030     1.4750    -0.1090 ca         1 VM1       0.355900
     13 N1M          1.3330     2.4090    -0.2570 nb         1 VM1      -0.710000
     14 C1N          0.0460     1.9930    -0.2530 ca         1 VM1       0.327900
     15 H1H          0.4410    -1.3710     0.1660 ha         1 VM1       0.136000
     16 H1K         -2.6120     2.1110     0.5600 ha         1 VM1       0.129000
     17 H1L          3.3240     1.8550    -0.1180 h4         1 VM1       0.034100
     18 H1N         -0.6970     2.7760    -0.3890 h4         1 VM1      -0.007900
     19 H1E         -4.8240    -1.5380    -0.3530 h4         1 VM1       0.136000
     20 H1F         -4.9610     0.9930     0.4280 ha         1 VM1       0.117000
@<TRIPOS>BOND
     1     1     2 1   
     2     2     3 1   
     3     2     7 1   
     4     4     5 1   
     5     4    10 1   
     6     5     6 2   
     7     5    19 1   
     8     6    11 1   
     9     6    20 1   
    10     7     8 ar  
    11     7    12 ar  
    12     8     9 ar  
    13     8    15 1   
    14     9    10 1   
    15     9    14 ar  
    16    10    11 2   
    17    11    16 1   
    18    12    13 ar  
    19    12    17 1   
    20    13    14 ar  
    21    14    18 1   
@<TRIPOS>SUBSTRUCTURE
     1 VM1         1 TEMP              0 ****  ****    0 ROOT
