@<TRIPOS>MOLECULE
VM1
   20    21     1     0     0
SMALL
bcc


@<TRIPOS>ATOM
      1 O1A          2.7910    -2.0790     0.4480 o          1 VM1      -0.818800
      2 C1B          3.1410    -0.9100     0.2050 c          1 VM1       0.930200
      3 O1C          4.3010    -0.4740     0.0980 o          1 VM1      -0.818800
      4 S1D         -2.2820    -1.2520    -0.5350 ss         1 VM1      -0.077800
      5 C1E         -3.9210    -0.8470    -0.2470 cc         1 VM1      -0.153100
      6 C1F         -4.0490     0.4370     0.1860 cd         1 VM1      -0.149000
      7 C1G          2.0190     0.1070     0.0260 ca         1 VM1      -0.247900
      8 C1H          0.6880    -0.2800     0.0500 ca         1 VM1      -0.065000
      9 C1I         -0.3220     0.6690    -0.0900 ca         1 VM1      -0.182300
     10 C1J         -1.7400     0.3210    -0.0680 cc         1 VM1       0.046900
     11 C1K         -2.8020     1.1060     0.2890 cd         1 VM1      -0.185000
     12 C1L          2.2870     1.4610    -0.1440 ca         1 VM1       0.421200
     13 N1M          1.3420     2.3860    -0.2780 nb         1 VM1      -0.710000
     14 C1N          0.0770     1.9980    -0.2540 ca         1 VM1       0.393200
     15 H1H          0.4500    -1.3280     0.1940 ha         1 VM1       0.154000
     16 H1K         -2.7020     2.1290     0.6270 ha         1 VM1       0.147000
     17 H1L          3.3120     1.8120    -0.1680 h4         1 VM1       0.034100
     18 H1N         -0.6690     2.7730    -0.3830 h4         1 VM1      -0.007900
     19 H1E         -4.6940    -1.5800    -0.4150 h4         1 VM1       0.154000
     20 H1F         -4.9990     0.8930     0.4230 ha         1 VM1       0.135000
@<TRIPOS>BOND
     1     1     2 1   
     2     2     3 1   
     3     2     7 1   
     4     4     5 1   
     5     4    10 1   
     6     5     6 2   
     7     5    19 1   
     8     6    11 1   
     9     6    20 1   
    10     7     8 ar  
    11     7    12 ar  
    12     8     9 ar  
    13     8    15 1   
    14     9    10 1   
    15     9    14 ar  
    16    10    11 2   
    17    11    16 1   
    18    12    13 ar  
    19    12    17 1   
    20    13    14 ar  
    21    14    18 1   
@<TRIPOS>SUBSTRUCTURE
     1 VM1         1 TEMP              0 ****  ****    0 ROOT
