@<TRIPOS>MOLECULE
VM2
   43    44     1     0     0
SMALL
No Charge or Current Charge


@<TRIPOS>ATOM
      1 C1          -2.7250    -0.1950    -0.3870 c6         1 VM2      -0.063700
      2 C2          -3.9650     0.4270    -1.0910 c6         1 VM2      -0.071900
      3 C3          -5.2900    -0.1330    -0.5160 c6         1 VM2      -0.072900
      4 C4          -5.3700     0.0820     1.0150 c6         1 VM2      -0.074400
      5 C5          -4.1440    -0.5390     1.7280 c6         1 VM2      -0.072900
      6 C6          -2.8170     0.0180     1.1540 c6         1 VM2      -0.071900
      7 C2B          1.4650     1.5520    -0.3820 c5         1 VM2       0.134300
      8 C3B          2.9480     1.3670     0.0580 c5         1 VM2       0.086300
      9 C4B          2.8470    -0.0490     0.6920 c5         1 VM2       0.149300
     10 C5B          2.2510    -0.8190    -0.5170 c5         1 VM2      -0.057700
     11 C6B          1.8820    -2.2970    -0.2320 c3         1 VM2       0.177600
     12 O2B          1.3070     2.6570    -1.2820 oh         1 VM2      -0.714000
     13 O3B          3.3950     2.3730     0.9760 oh         1 VM2      -0.664000
     14 O4B          4.1130    -0.5810     1.0800 oh         1 VM2      -0.695000
     15 O6B          3.0580    -3.0210     0.1680 oh         1 VM2      -0.653000
     16 CAR          1.1040     0.1410    -1.0110 c5         1 VM2       0.179500
     17 N2B         -0.2110    -0.3170    -0.4650 n7         1 VM2      -0.867400
     18 C7B         -1.4070     0.3730    -0.9880 c3         1 VM2       0.167800
     19 H1          -2.7180    -1.2750    -0.5940 hc         1 VM2       0.058700
     20 H21C        -3.9480     1.5200    -0.9770 hc         1 VM2       0.037200
     21 H22C        -3.9230     0.2260    -2.1700 hc         1 VM2       0.037200
     22 H61C        -1.9750    -0.4740     1.6600 hc         1 VM2       0.037200
     23 H62C        -2.7370     1.0890     1.3870 hc         1 VM2       0.037200
     24 H7B1        -1.4490     0.2630    -2.0800 h1         1 VM2       0.038700
     25 H7B2        -1.3610     1.4490    -0.7670 h1         1 VM2       0.038700
     26 H31C        -6.1440     0.3550    -1.0050 hc         1 VM2       0.038450
     27 H32C        -5.3690    -1.2050    -0.7440 hc         1 VM2       0.038450
     28 H41C        -5.4220     1.1570     1.2360 hc         1 VM2       0.037700
     29 H42C        -6.2940    -0.3640     1.4070 hc         1 VM2       0.037700
     30 H51C        -4.1980    -0.3340     2.8060 hc         1 VM2       0.038450
     31 H52C        -4.1650    -1.6320     1.6160 hc         1 VM2       0.038450
     32 H2B          0.8540     1.7290     0.5160 h1         1 VM2       0.039700
     33 H3B          3.6120     1.3470    -0.8200 h1         1 VM2       0.057700
     34 HA           1.7920     3.4090    -0.8660 ho         1 VM2       0.516000
     35 HAR          1.0840     0.1750    -2.1110 h1         1 VM2       0.077700
     36 H4B          2.1530    -0.0590     1.5460 h1         1 VM2       0.042700
     37 HB           4.1540     1.9740     1.4610 ho         1 VM2       0.450000
     38 H5B          3.0030    -0.8730    -1.3140 hc         1 VM2       0.081700
     39 HC           4.0320    -1.5540     0.8960 ho         1 VM2       0.501000
     40 H6B1         1.1270    -2.3460     0.5630 h1         1 VM2       0.026200
     41 H6B2         1.4510    -2.7400    -1.1400 h1         1 VM2       0.026200
     42 H6B          2.8010    -3.9690     0.2250 ho         1 VM2       0.438000
     43 HD          -0.2120    -0.2250     0.5560 hn         1 VM2       0.409000
@<TRIPOS>BOND
     1     1     2 1   
     2     1     6 1   
     3     1    18 1   
     4     1    19 1   
     5     2     3 1   
     6     2    20 1   
     7     2    21 1   
     8     3     4 1   
     9     3    26 1   
    10     3    27 1   
    11     4     5 1   
    12     4    28 1   
    13     4    29 1   
    14     5     6 1   
    15     5    30 1   
    16     5    31 1   
    17     6    22 1   
    18     6    23 1   
    19     7     8 1   
    20     7    12 1   
    21     7    16 1   
    22     7    32 1   
    23     8     9 1   
    24     8    13 1   
    25     8    33 1   
    26     9    10 1   
    27     9    14 1   
    28     9    36 1   
    29    10    11 1   
    30    10    16 1   
    31    10    38 1   
    32    11    15 1   
    33    11    40 1   
    34    11    41 1   
    35    12    34 1   
    36    13    37 1   
    37    14    39 1   
    38    15    42 1   
    39    16    17 1   
    40    16    35 1   
    41    17    18 1   
    42    17    43 1   
    43    18    24 1   
    44    18    25 1   
@<TRIPOS>SUBSTRUCTURE
     1 VM2         1 TEMP              0 ****  ****    0 ROOT
