@<TRIPOS>MOLECULE
VM2
   43    44     1     0     0
SMALL
abcg2


@<TRIPOS>ATOM
      1 C1          -2.7420    -0.2040    -0.3980 c6         1 VM2      -0.063700
      2 C2          -3.8750     0.5280    -1.1190 c6         1 VM2      -0.071900
      3 C3          -5.2530     0.0030    -0.7300 c6         1 VM2      -0.072900
      4 C4          -5.4590     0.0550     0.7800 c6         1 VM2      -0.074400
      5 C5          -4.3480    -0.6950     1.5050 c6         1 VM2      -0.072900
      6 C6          -2.9690    -0.1700     1.1150 c6         1 VM2      -0.071900
      7 C2B          1.5390     1.4160    -0.0410 c5         1 VM2       0.134300
      8 C3B          3.0470     1.2590    -0.0500 c5         1 VM2       0.086300
      9 C4B          3.2260    -0.1980     0.3630 c5         1 VM2       0.149300
     10 C5B          2.1720    -0.9220    -0.4780 c5         1 VM2      -0.057700
     11 C6B          1.6890    -2.2410     0.0960 c3         1 VM2       0.177600
     12 O2B          1.0630     2.5550    -0.7130 oh         1 VM2      -0.714000
     13 O3B          3.6560     2.2020     0.8010 oh         1 VM2      -0.664000
     14 O4B          4.5160    -0.7060     0.1300 oh         1 VM2      -0.695000
     15 O6B          2.7770    -3.1360     0.1800 oh         1 VM2      -0.653000
     16 CAR          1.0260     0.1220    -0.6940 c5         1 VM2       0.179500
     17 N2B         -0.2750    -0.3330    -0.2490 n7         1 VM2      -0.867400
     18 C7B         -1.4010     0.4050    -0.7940 c3         1 VM2       0.167800
     19 H1          -2.7480    -1.2530    -0.7220 hc         1 VM2       0.058700
     20 H21C        -3.8170     1.5970    -0.8790 hc         1 VM2       0.037200
     21 H22C        -3.7360     0.4500    -2.2010 hc         1 VM2       0.037200
     22 H61C        -2.2060    -0.7580     1.6330 hc         1 VM2       0.037200
     23 H62C        -2.8590     0.8630     1.4670 hc         1 VM2       0.037200
     24 H7B1        -1.3120     0.3820    -1.8860 h1         1 VM2       0.038700
     25 H7B2        -1.4050     1.4680    -0.5110 h1         1 VM2       0.038700
     26 H31C        -6.0300     0.5770    -1.2400 hc         1 VM2       0.038450
     27 H32C        -5.3590    -1.0330    -1.0720 hc         1 VM2       0.038450
     28 H41C        -5.4650     1.1000     1.1090 hc         1 VM2       0.037700
     29 H42C        -6.4340    -0.3600     1.0460 hc         1 VM2       0.037700
     30 H51C        -4.4810    -0.6230     2.5870 hc         1 VM2       0.038450
     31 H52C        -4.4100    -1.7610     1.2560 hc         1 VM2       0.038450
     32 H2B          1.2110     1.4230     1.0130 h1         1 VM2       0.039700
     33 H3B          3.4060     1.3720    -1.0840 h1         1 VM2       0.057700
     34 HA           1.3730     3.3330    -0.2380 ho         1 VM2       0.516000
     35 HAR          0.9420     0.3060    -1.7700 h1         1 VM2       0.077700
     36 H4B          2.9600    -0.2850     1.4300 h1         1 VM2       0.042700
     37 HB           4.5630     2.3430     0.5160 ho         1 VM2       0.450000
     38 H5B          2.6220    -1.1290    -1.4550 hc         1 VM2       0.081700
     39 HC           5.1220    -0.2840     0.7460 ho         1 VM2       0.501000
     40 H6B1         1.2400    -2.0740     1.0860 h1         1 VM2       0.026200
     41 H6B2         0.8920    -2.6370    -0.5440 h1         1 VM2       0.026200
     42 H6B          2.4440    -3.9650     0.5340 ho         1 VM2       0.438000
     43 HD          -0.3120    -0.3080     0.7620 hn         1 VM2       0.409000
@<TRIPOS>BOND
     1     1     2 1   
     2     1     6 1   
     3     1    18 1   
     4     1    19 1   
     5     2     3 1   
     6     2    20 1   
     7     2    21 1   
     8     3     4 1   
     9     3    26 1   
    10     3    27 1   
    11     4     5 1   
    12     4    28 1   
    13     4    29 1   
    14     5     6 1   
    15     5    30 1   
    16     5    31 1   
    17     6    22 1   
    18     6    23 1   
    19     7     8 1   
    20     7    12 1   
    21     7    16 1   
    22     7    32 1   
    23     8     9 1   
    24     8    13 1   
    25     8    33 1   
    26     9    10 1   
    27     9    14 1   
    28     9    36 1   
    29    10    11 1   
    30    10    16 1   
    31    10    38 1   
    32    11    15 1   
    33    11    40 1   
    34    11    41 1   
    35    12    34 1   
    36    13    37 1   
    37    14    39 1   
    38    15    42 1   
    39    16    17 1   
    40    16    35 1   
    41    17    18 1   
    42    17    43 1   
    43    18    24 1   
    44    18    25 1   
@<TRIPOS>SUBSTRUCTURE
     1 VM2         1 TEMP              0 ****  ****    0 ROOT
