@<TRIPOS>MOLECULE
VM3
   38    42     1     0     0
SMALL
abcg2


@<TRIPOS>ATOM
      1 C1         -14.8830   -25.8730     9.0360 cx         1 VM3      -0.049400
      2 C2         -16.0570   -25.4540     8.2240 cc         1 VM3      -0.034300
      3 C3         -13.8190   -26.6300     8.2960 ca         1 VM3      -0.046300
      4 C11        -16.9100   -27.8120     8.0950 cc         1 VM3      -0.250100
      5 C12        -17.4650   -23.8590     7.0280 ca         1 VM3      -0.036000
      6 C13        -12.8260   -27.3450     6.1950 ca         1 VM3      -0.098500
      7 C14        -11.7840   -27.9590     8.2820 ca         1 VM3      -0.098500
      8 C15        -18.3550   -24.8860     6.6270 ca         1 VM3      -0.006000
      9 C17        -18.0120   -28.3300     7.4660 cd         1 VM3      -0.054400
     10 C18        -17.7280   -22.5370     6.6220 ca         1 VM3      -0.100000
     11 C19        -11.8150   -27.9830     6.8950 ca         1 VM3       0.125000
     12 C20        -19.4760   -24.5720     5.8400 ca         1 VM3      -0.070000
     13 C21        -18.8320   -22.2450     5.8480 ca         1 VM3      -0.100000
     14 C23        -19.7100   -23.2680     5.4560 ca         1 VM3      -0.110000
     15 C4         -14.4460   -24.9520    10.1600 cx         1 VM3      -0.103400
     16 C5         -15.1760   -26.2130    10.4890 cx         1 VM3      -0.103400
     17 N6         -16.9400   -26.4570     7.8320 na         1 VM3       0.102100
     18 C7         -16.3210   -24.1890     7.8270 cd         1 VM3      -0.125000
     19 C8         -13.8170   -26.6730     6.9000 ca         1 VM3      -0.096500
     20 C9         -12.7850   -27.2870     8.9710 ca         1 VM3      -0.096500
     21 C10        -18.0650   -26.2210     7.0520 cc         1 VM3      -0.071000
     22 N16        -18.7230   -27.3500     6.8240 nd         1 VM3      -0.284600
     23 CL22       -10.5550   -28.8310     6.0190 cl         1 VM3      -0.209000
     24 H1         -16.1340   -28.2670     8.6810 h4         1 VM3       0.235000
     25 H2         -12.8430   -27.3680     5.1140 ha         1 VM3       0.132500
     26 H3         -10.9910   -28.4600     8.8210 ha         1 VM3       0.132500
     27 H4         -18.3250   -29.3620     7.4450 h4         1 VM3       0.227000
     28 H5         -17.0480   -21.7520     6.9270 ha         1 VM3       0.114000
     29 H6         -20.1490   -25.3640     5.5400 ha         1 VM3       0.138000
     30 H7         -19.0230   -21.2250     5.5420 ha         1 VM3       0.116000
     31 H8         -20.5750   -23.0310     4.8490 ha         1 VM3       0.118000
     32 H9         -13.3830   -24.9130    10.3510 hc         1 VM3       0.082450
     33 H10        -14.9670   -24.0130    10.2770 hc         1 VM3       0.082450
     34 H11        -16.2090   -26.1290    10.7990 hc         1 VM3       0.082450
     35 H12        -14.6370   -27.0370    10.9330 hc         1 VM3       0.082450
     36 H13        -15.6410   -23.4000     8.1160 ha         1 VM3       0.130000
     37 H14        -14.5970   -26.1720     6.3420 ha         1 VM3       0.122000
     38 H15        -12.7400   -27.2790    10.0510 ha         1 VM3       0.122000
@<TRIPOS>BOND
     1     1     2 1   
     2     1     3 1   
     3     1    15 1   
     4     1    16 1   
     5     2    17 1   
     6     2    18 2   
     7     3    19 ar  
     8     3    20 ar  
     9     4     9 2   
    10     4    17 1   
    11     4    24 1   
    12     5     8 ar  
    13     5    10 ar  
    14     5    18 1   
    15     6    11 ar  
    16     6    19 ar  
    17     6    25 1   
    18     7    11 ar  
    19     7    20 ar  
    20     7    26 1   
    21     8    12 ar  
    22     8    21 1   
    23     9    22 1   
    24     9    27 1   
    25    10    13 ar  
    26    10    28 1   
    27    11    23 1   
    28    12    14 ar  
    29    12    29 1   
    30    13    14 ar  
    31    13    30 1   
    32    14    31 1   
    33    15    16 1   
    34    15    32 1   
    35    15    33 1   
    36    16    34 1   
    37    16    35 1   
    38    17    21 1   
    39    18    36 1   
    40    19    37 1   
    41    20    38 1   
    42    21    22 2   
@<TRIPOS>SUBSTRUCTURE
     1 VM3         1 TEMP              0 ****  ****    0 ROOT
