@<TRIPOS>MOLECULE
VM3
   38    42     1     0     0
SMALL
No Charge or Current Charge


@<TRIPOS>ATOM
      1 C1         -14.8890   -25.9550     9.1110 cx         1 VM3      -0.049400
      2 C2         -16.0680   -25.5830     8.2900 cc         1 VM3      -0.034300
      3 C3         -13.7810   -26.6240     8.2990 ca         1 VM3      -0.046300
      4 C11        -17.0420   -27.8300     8.2040 cc         1 VM3      -0.250100
      5 C12        -17.4610   -23.8960     6.9590 ca         1 VM3      -0.036000
      6 C13        -12.7980   -27.2940     6.1490 ca         1 VM3      -0.098500
      7 C14        -11.6350   -27.8170     8.2110 ca         1 VM3      -0.098500
      8 C15        -18.4150   -24.8610     6.6270 ca         1 VM3      -0.006000
      9 C17        -18.1800   -28.3110     7.5850 cd         1 VM3      -0.054400
     10 C18        -17.6150   -22.5730     6.5060 ca         1 VM3      -0.100000
     11 C19        -11.7050   -27.8660     6.8130 ca         1 VM3       0.125000
     12 C20        -19.5300   -24.5230     5.8360 ca         1 VM3      -0.070000
     13 C21        -18.7280   -22.2250     5.7190 ca         1 VM3      -0.100000
     14 C23        -19.6860   -23.2000     5.3840 ca         1 VM3      -0.110000
     15 C4         -14.5260   -25.0350    10.2620 cx         1 VM3      -0.103400
     16 C5         -15.1880   -26.3570    10.5460 cx         1 VM3      -0.103400
     17 N6         -17.0830   -26.4940     7.9120 na         1 VM3       0.102100
     18 C7         -16.3100   -24.3040     7.7810 cd         1 VM3      -0.125000
     19 C8         -13.8260   -26.6750     6.8820 ca         1 VM3      -0.096500
     20 C9         -12.6620   -27.2000     8.9480 ca         1 VM3      -0.096500
     21 C10        -18.1640   -26.1940     7.1280 cc         1 VM3      -0.071000
     22 N16        -18.8650   -27.2960     6.9210 nd         1 VM3      -0.284600
     23 Cl22       -10.4190   -28.6370     5.8930 cl         1 VM3      -0.209000
     24 H1         -16.2650   -28.3120     8.7860 h4         1 VM3       0.235000
     25 H2         -12.8480   -27.3270     5.0630 ha         1 VM3       0.132500
     26 H3         -10.7840   -28.2550     8.7260 ha         1 VM3       0.132500
     27 H4         -18.5410   -29.3370     7.5690 h4         1 VM3       0.227000
     28 H5         -16.8760   -21.8170     6.7610 ha         1 VM3       0.114000
     29 H6         -20.2680   -25.2780     5.5760 ha         1 VM3       0.138000
     30 H7         -18.8480   -21.2020     5.3680 ha         1 VM3       0.116000
     31 H8         -20.5460   -22.9320     4.7740 ha         1 VM3       0.118000
     32 H9         -13.4760   -24.9260    10.5220 hc         1 VM3       0.082450
     33 H10        -15.1190   -24.1360    10.4140 hc         1 VM3       0.082450
     34 H11        -16.2250   -26.3350    10.8730 hc         1 VM3       0.082450
     35 H12        -14.5950   -27.1410    11.0070 hc         1 VM3       0.082450
     36 H13        -15.5730   -23.5400     8.0080 ha         1 VM3       0.130000
     37 H14        -14.6510   -26.2380     6.3280 ha         1 VM3       0.122000
     38 H15        -12.5710   -27.1720    10.0300 ha         1 VM3       0.122000
@<TRIPOS>BOND
     1     1     2 1   
     2     1     3 1   
     3     1    15 1   
     4     1    16 1   
     5     2    17 1   
     6     2    18 2   
     7     3    19 ar  
     8     3    20 ar  
     9     4     9 2   
    10     4    17 1   
    11     4    24 1   
    12     5     8 ar  
    13     5    10 ar  
    14     5    18 1   
    15     6    11 ar  
    16     6    19 ar  
    17     6    25 1   
    18     7    11 ar  
    19     7    20 ar  
    20     7    26 1   
    21     8    12 ar  
    22     8    21 1   
    23     9    22 1   
    24     9    27 1   
    25    10    13 ar  
    26    10    28 1   
    27    11    23 1   
    28    12    14 ar  
    29    12    29 1   
    30    13    14 ar  
    31    13    30 1   
    32    14    31 1   
    33    15    16 1   
    34    15    32 1   
    35    15    33 1   
    36    16    34 1   
    37    16    35 1   
    38    17    21 1   
    39    18    36 1   
    40    19    37 1   
    41    20    38 1   
    42    21    22 2   
@<TRIPOS>SUBSTRUCTURE
     1 VM3         1 TEMP              0 ****  ****    0 ROOT
