@<TRIPOS>MOLECULE
VM4
   45    48     1     0     0
SMALL
No Charge or Current Charge


@<TRIPOS>ATOM
      1 O11         37.2640   -15.9040    18.0760 o          1 VM4      -0.509000
      2 C1          37.3620   -16.2220    16.8990 c          1 VM4       0.625600
      3 N2          38.5380   -16.1060    16.1460 n          1 VM4      -0.257500
      4 C12         39.7090   -15.4910    16.7290 ca         1 VM4       0.014600
      5 C13         40.3650   -14.4130    16.0950 ca         1 VM4      -0.080500
      6 C14         41.5250   -13.8510    16.6560 ca         1 VM4      -0.107000
      7 C15         42.0490   -14.3670    17.8520 ca         1 VM4      -0.095000
      8 C16         41.4120   -15.4460    18.4860 ca         1 VM4      -0.107000
      9 C17         40.2510   -16.0070    17.9260 ca         1 VM4      -0.080500
     10 C3          38.5240   -16.4970    14.7940 cc         1 VM4       0.553800
     11 N4          37.4750   -16.9470    14.0940 nd         1 VM4      -0.671100
     12 C5          36.3120   -17.0530    14.8310 cd         1 VM4       0.151400
     13 N9          35.0300   -17.4870    14.4830 na         1 VM4       0.133800
     14 C10         34.5850   -17.9510    13.1630 c3         1 VM4       0.077900
     15 N8          34.1580   -17.4300    15.5740 nd         1 VM4      -0.516800
     16 C7          34.9410   -16.9700    16.5400 cc         1 VM4       0.324900
     17 C6          36.2560   -16.7320    16.1270 cc         1 VM4      -0.338600
     18 S18         40.0270   -16.5360    13.8570 ss         1 VM4      -0.226200
     19 C19         39.8370   -18.0000    12.7330 c3         1 VM4       0.123600
     20 C26         39.8240   -19.3100    13.5530 c3         1 VM4      -0.081100
     21 C20         40.9530   -17.9900    11.6870 ca         1 VM4      -0.044300
     22 C21         40.6340   -17.8650    10.3190 ca         1 VM4      -0.131000
     23 C22         41.6510   -17.8530     9.3480 ca         1 VM4      -0.073000
     24 C23         42.9950   -17.9650     9.7390 ca         1 VM4      -0.136000
     25 C24         43.3220   -18.0870    11.0980 ca         1 VM4       0.141100
     26 O24         44.6280   -18.1920    11.4710 oh         1 VM4      -0.531100
     27 C25         42.3070   -18.0990    12.0690 ca         1 VM4      -0.196000
     28 H1          39.9640   -13.9910    15.1760 ha         1 VM4       0.126000
     29 H2          42.0170   -13.0150    16.1640 ha         1 VM4       0.118500
     30 H3          42.9480   -13.9330    18.2860 ha         1 VM4       0.116000
     31 H4          41.8200   -15.8520    19.4100 ha         1 VM4       0.118500
     32 H5          39.7780   -16.8530    18.4200 ha         1 VM4       0.126000
     33 H6          34.3230   -17.0850    12.5440 h1         1 VM4       0.060033
     34 H7          35.3940   -18.5110    12.6800 h1         1 VM4       0.060033
     35 H8          33.7090   -18.6010    13.2720 h1         1 VM4       0.060033
     36 H9          34.5220   -16.8180    17.5270 h4         1 VM4       0.053100
     37 H10         38.8780   -17.9110    12.2060 h1         1 VM4       0.097700
     38 H11         38.9680   -19.3370    14.2370 hc         1 VM4       0.048700
     39 H12         39.7480   -20.1760    12.8840 hc         1 VM4       0.048700
     40 H13         40.7390   -19.4130    14.1470 hc         1 VM4       0.048700
     41 H14         39.5970   -17.7760    10.0040 ha         1 VM4       0.119000
     42 H15         41.3960   -17.7570     8.2950 ha         1 VM4       0.118000
     43 H16         43.7820   -17.9560     8.9900 ha         1 VM4       0.131000
     44 H17         44.6650   -18.2650    12.4490 ho         1 VM4       0.466000
     45 H18         42.5660   -18.1870    13.1210 ha         1 VM4       0.118000
@<TRIPOS>BOND
     1     1     2 2   
     2     2     3 1   
     3     2    17 1   
     4     3     4 1   
     5     3    10 1   
     6     4     5 ar  
     7     4     9 ar  
     8     5     6 ar  
     9     5    28 1   
    10     6     7 ar  
    11     6    29 1   
    12     7     8 ar  
    13     7    30 1   
    14     8     9 ar  
    15     8    31 1   
    16     9    32 1   
    17    10    11 2   
    18    10    18 1   
    19    11    12 1   
    20    12    13 1   
    21    12    17 2   
    22    13    14 1   
    23    13    15 1   
    24    14    33 1   
    25    14    34 1   
    26    14    35 1   
    27    15    16 2   
    28    16    17 1   
    29    16    36 1   
    30    18    19 1   
    31    19    20 1   
    32    19    21 1   
    33    19    37 1   
    34    20    38 1   
    35    20    39 1   
    36    20    40 1   
    37    21    22 ar  
    38    21    27 ar  
    39    22    23 ar  
    40    22    41 1   
    41    23    24 ar  
    42    23    42 1   
    43    24    25 ar  
    44    24    43 1   
    45    25    26 1   
    46    25    27 ar  
    47    26    44 1   
    48    27    45 1   
@<TRIPOS>SUBSTRUCTURE
     1 VM4         1 TEMP              0 ****  ****    0 ROOT
