@<TRIPOS>MOLECULE
VM4
   45    48     1     0     0
SMALL
bcc


@<TRIPOS>ATOM
      1 O11         37.3310   -15.0390    17.7120 o          1 VM4      -0.584500
      2 C1          37.3040   -15.7440    16.7250 c          1 VM4       0.768100
      3 N2          38.5020   -16.0450    16.0300 n          1 VM4      -0.324500
      4 C12         39.7090   -15.4800    16.5510 ca         1 VM4       0.014600
      5 C13         40.1240   -14.2330    16.1090 ca         1 VM4      -0.098500
      6 C14         41.2980   -13.6920    16.6120 ca         1 VM4      -0.125000
      7 C15         42.0430   -14.3950    17.5500 ca         1 VM4      -0.113000
      8 C16         41.6150   -15.6410    17.9890 ca         1 VM4      -0.125000
      9 C17         40.4430   -16.1890    17.4890 ca         1 VM4      -0.098500
     10 C3          38.5520   -16.8310    14.9050 cc         1 VM4       0.553800
     11 N4          37.5240   -17.3850    14.3530 nd         1 VM4      -0.671100
     12 C5          36.3570   -17.1330    14.9760 cd         1 VM4       0.202100
     13 N9          35.1500   -17.5840    14.6130 na         1 VM4       0.112400
     14 C10         34.8190   -18.4160    13.4820 c3         1 VM4       0.048600
     15 N8          34.1910   -17.1420    15.4450 nd         1 VM4      -0.516800
     16 C7          34.7860   -16.4060    16.3530 cc         1 VM4       0.390200
     17 C6          36.1730   -16.3580    16.1130 cc         1 VM4      -0.403900
     18 S18         40.1500   -17.0300    14.2150 ss         1 VM4      -0.178300
     19 C19         39.8040   -18.1710    12.8160 c3         1 VM4       0.075700
     20 C26         39.6330   -19.6040    13.2880 c3         1 VM4      -0.081100
     21 C20         40.9460   -17.9770    11.8520 ca         1 VM4      -0.044300
     22 C21         40.7140   -17.3840    10.6170 ca         1 VM4      -0.149000
     23 C22         41.7680   -17.2060     9.7290 ca         1 VM4      -0.091000
     24 C23         43.0510   -17.6030    10.0600 ca         1 VM4      -0.154000
     25 C24         43.2880   -18.1940    11.3000 ca         1 VM4       0.141100
     26 O24         44.5510   -18.5640    11.5860 oh         1 VM4      -0.492100
     27 C25         42.2350   -18.3810    12.1910 ca         1 VM4      -0.214000
     28 H1          39.5360   -13.6950    15.3770 ha         1 VM4       0.144000
     29 H2          41.6280   -12.7190    16.2710 ha         1 VM4       0.136500
     30 H3          42.9580   -13.9700    17.9410 ha         1 VM4       0.134000
     31 H4          42.1940   -16.1890    18.7210 ha         1 VM4       0.136500
     32 H5          40.1020   -17.1620    17.8200 ha         1 VM4       0.144000
     33 H6          34.2180   -17.8620    12.7640 h1         1 VM4       0.060033
     34 H7          35.7400   -18.7340    13.0030 h1         1 VM4       0.060033
     35 H8          34.2680   -19.2930    13.8140 h1         1 VM4       0.060033
     36 H9          34.2190   -15.9370    17.1420 h4         1 VM4       0.053100
     37 H10         38.8810   -17.8210    12.3540 h1         1 VM4       0.097700
     38 H11         38.7940   -19.6860    13.9770 hc         1 VM4       0.048700
     39 H12         39.4280   -20.2470    12.4300 hc         1 VM4       0.048700
     40 H13         40.5260   -19.9780    13.7860 hc         1 VM4       0.048700
     41 H14         39.7150   -17.0670    10.3480 ha         1 VM4       0.137000
     42 H15         41.5850   -16.7490     8.7650 ha         1 VM4       0.136000
     43 H16         43.8710   -17.4610     9.3670 ha         1 VM4       0.149000
     44 H17         44.5950   -18.9680    12.4600 ho         1 VM4       0.427000
     45 H18         42.4290   -18.8430    13.1550 ha         1 VM4       0.136000
@<TRIPOS>BOND
     1     1     2 2   
     2     2     3 1   
     3     2    17 1   
     4     3     4 1   
     5     3    10 1   
     6     4     5 ar  
     7     4     9 ar  
     8     5     6 ar  
     9     5    28 1   
    10     6     7 ar  
    11     6    29 1   
    12     7     8 ar  
    13     7    30 1   
    14     8     9 ar  
    15     8    31 1   
    16     9    32 1   
    17    10    11 2   
    18    10    18 1   
    19    11    12 1   
    20    12    13 1   
    21    12    17 2   
    22    13    14 1   
    23    13    15 1   
    24    14    33 1   
    25    14    34 1   
    26    14    35 1   
    27    15    16 2   
    28    16    17 1   
    29    16    36 1   
    30    18    19 1   
    31    19    20 1   
    32    19    21 1   
    33    19    37 1   
    34    20    38 1   
    35    20    39 1   
    36    20    40 1   
    37    21    22 ar  
    38    21    27 ar  
    39    22    23 ar  
    40    22    41 1   
    41    23    24 ar  
    42    23    42 1   
    43    24    25 ar  
    44    24    43 1   
    45    25    26 1   
    46    25    27 ar  
    47    26    44 1   
    48    27    45 1   
@<TRIPOS>SUBSTRUCTURE
     1 VM4         1 TEMP              0 ****  ****    0 ROOT
