@<TRIPOS>MOLECULE
VM5
   46    48     1     0     0
SMALL
abcg2


@<TRIPOS>ATOM
      1 N1          47.8440   -28.6380    41.9030 n1         1 VM5      -0.431000
      2 C7          48.2490   -28.1910    40.9200 cg         1 VM5       0.317000
      3 C1          48.7450   -27.6420    39.6980 ca         1 VM5       0.024000
      4 C6          49.9800   -28.0710    39.2100 ca         1 VM5      -0.086000
      5 C2          47.9770   -26.6970    39.0120 ca         1 VM5      -0.090000
      6 C3          48.4770   -26.1950    37.8230 ca         1 VM5       0.144000
      7 CL1         47.5490   -25.0100    36.9440 cl         1 VM5      -0.189000
      8 C4          49.7010   -26.6020    37.3060 ca         1 VM5      -0.146000
      9 C5          50.4380   -27.5460    38.0110 ca         1 VM5       0.132100
     10 O1          51.6740   -27.9770    37.5920 os         1 VM5      -0.224200
     11 C8          52.0040   -27.8660    36.2640 ca         1 VM5       0.080100
     12 C13         51.4010   -28.6980    35.3260 ca         1 VM5       0.155000
     13 F           50.4540   -29.5510    35.7730 f          1 VM5      -0.168000
     14 C9          52.9880   -26.9860    35.8290 ca         1 VM5       0.003100
     15 BR          53.8190   -25.8260    37.0840 br         1 VM5      -0.052100
     16 C10         53.3560   -26.9490    34.4900 ca         1 VM5      -0.085000
     17 C11         52.7270   -27.7900    33.5830 ca         1 VM5      -0.066000
     18 C12         51.7280   -28.6790    33.9790 ca         1 VM5      -0.105300
     19 C14         51.0640   -29.6170    33.0000 c3         1 VM5      -0.106100
     20 C15         51.7850   -30.9640    32.9870 c          1 VM5       0.612100
     21 O2          52.7810   -31.1530    32.3100 o          1 VM5      -0.561100
     22 N2          51.2270   -31.8980    33.8190 ns         1 VM5      -0.144000
     23 C16         51.6340   -33.2020    34.0780 ca         1 VM5       0.046000
     24 C21         50.8770   -33.9780    34.9720 ca         1 VM5       0.036000
     25 CL2         49.4660   -33.2910    35.7440 cl         1 VM5      -0.201000
     26 C20         51.2120   -35.2880    35.2620 ca         1 VM5       0.026000
     27 C19         52.3270   -35.8470    34.6520 ca         1 VM5      -0.304500
     28 S           52.7860   -37.5100    35.0510 sy         1 VM5       1.165600
     29 O3          54.1230   -37.5160    35.6030 o          1 VM5      -0.551500
     30 O4          51.7120   -38.0770    35.8350 o          1 VM5      -0.551500
     31 N3          52.9120   -38.2200    33.5740 n8         1 VM5      -1.025100
     32 C18         53.1030   -35.1000    33.7710 ca         1 VM5       0.031000
     33 C17         52.7600   -33.7920    33.4860 ca         1 VM5      -0.160000
     34 H1          50.5720   -28.8000    39.7450 ha         1 VM5       0.151000
     35 H2          47.0220   -26.3720    39.3970 ha         1 VM5       0.146000
     36 H3          50.0660   -26.1880    36.3770 ha         1 VM5       0.143000
     37 H4          54.1180   -26.2590    34.1590 ha         1 VM5       0.145000
     38 H5          53.0060   -27.7500    32.5380 ha         1 VM5       0.136000
     39 H6          51.1400   -29.2010    31.9980 hc         1 VM5       0.083700
     40 H7          50.0100   -29.7460    33.2410 hc         1 VM5       0.083700
     41 H8          50.4010   -31.6050    34.3200 hn         1 VM5       0.172000
     42 H9          50.6070   -35.8680    35.9430 ha         1 VM5       0.157000
     43 H10         53.6440   -38.9250    33.5710 hn         1 VM5       0.481500
     44 H11         52.0250   -38.5870    33.2400 hn         1 VM5       0.481500
     45 H12         53.9680   -35.5400    33.2950 ha         1 VM5       0.136000
     46 H13         53.3510   -33.2100    32.7990 ha         1 VM5       0.158000
@<TRIPOS>BOND
     1     1     2 3   
     2     2     3 1   
     3     3     4 ar  
     4     3     5 ar  
     5     4     9 ar  
     6     4    34 1   
     7     5     6 ar  
     8     5    35 1   
     9     6     7 1   
    10     6     8 ar  
    11     8     9 ar  
    12     8    36 1   
    13     9    10 1   
    14    10    11 1   
    15    11    12 ar  
    16    11    14 ar  
    17    12    13 1   
    18    12    18 ar  
    19    14    15 1   
    20    14    16 ar  
    21    16    17 ar  
    22    16    37 1   
    23    17    18 ar  
    24    17    38 1   
    25    18    19 1   
    26    19    20 1   
    27    19    39 1   
    28    19    40 1   
    29    20    21 2   
    30    20    22 1   
    31    22    23 1   
    32    22    41 1   
    33    23    24 ar  
    34    23    33 ar  
    35    24    25 1   
    36    24    26 ar  
    37    26    27 ar  
    38    26    42 1   
    39    27    28 1   
    40    27    32 ar  
    41    28    29 2   
    42    28    30 2   
    43    28    31 1   
    44    31    43 1   
    45    31    44 1   
    46    32    33 ar  
    47    32    45 1   
    48    33    46 1   
@<TRIPOS>SUBSTRUCTURE
     1 VM5         1 TEMP              0 ****  ****    0 ROOT
