@<TRIPOS>MOLECULE
VM5
   46    48     1     0     0
SMALL
No Charge or Current Charge


@<TRIPOS>ATOM
      1 N1          48.1810   -29.2840    41.9140 n1         1 VM5      -0.431000
      2 C7          48.4640   -28.7710    40.9040 cg         1 VM5       0.317000
      3 C1          48.8110   -28.1280    39.6650 ca         1 VM5       0.024000
      4 C6          50.1360   -28.1750    39.1900 ca         1 VM5      -0.086000
      5 C2          47.8280   -27.4470    38.9200 ca         1 VM5      -0.090000
      6 C3          48.1720   -26.8170    37.7130 ca         1 VM5       0.144000
      7 Cl1         46.9450   -25.9620    36.7900 cl         1 VM5      -0.189000
      8 C4          49.4920   -26.8640    37.2400 ca         1 VM5      -0.146000
      9 C5          50.4760   -27.5530    37.9770 ca         1 VM5       0.132100
     10 O1          51.7810   -27.6160    37.5430 os         1 VM5      -0.224200
     11 C8          52.1250   -27.5560    36.2090 ca         1 VM5       0.080100
     12 C13         51.6030   -28.4860    35.2810 ca         1 VM5       0.155000
     13 F           50.7590   -29.4590    35.7020 f          1 VM5      -0.168000
     14 C9          53.0240   -26.5660    35.7710 ca         1 VM5       0.003100
     15 Br          53.7530   -25.2940    37.0060 br         1 VM5      -0.052100
     16 C10         53.3890   -26.4970    34.4160 ca         1 VM5      -0.085000
     17 C11         52.8620   -27.4170    33.4930 ca         1 VM5      -0.066000
     18 C12         51.9650   -28.4190    33.9180 ca         1 VM5      -0.105300
     19 C14         51.4070   -29.4240    32.9050 c3         1 VM5      -0.106100
     20 C15         52.1430   -30.7670    33.0010 c          1 VM5       0.612100
     21 O2          53.2530   -30.9230    32.5080 o          1 VM5      -0.561100
     22 N2          51.4570   -31.7450    33.7060 ns         1 VM5      -0.144000
     23 C16         51.7670   -33.0970    34.0210 ca         1 VM5       0.046000
     24 C21         50.9330   -33.7760    34.9370 ca         1 VM5       0.036000
     25 Cl2         49.5530   -32.9560    35.6730 cl         1 VM5      -0.201000
     26 C20         51.1880   -35.1130    35.2840 ca         1 VM5       0.026000
     27 C19         52.2830   -35.7940    34.7150 ca         1 VM5      -0.304500
     28 S           52.6060   -37.4980    35.1560 sy         1 VM5       1.165600
     29 O3          53.9820   -37.8720    34.8400 o          1 VM5      -0.551500
     30 O4          51.9740   -37.8380    36.4280 o          1 VM5      -0.551500
     31 N3          51.7280   -38.3260    34.0650 n8         1 VM5      -1.025100
     32 C18         53.1150   -35.1300    33.7940 ca         1 VM5       0.031000
     33 C17         52.8570   -33.7920    33.4500 ca         1 VM5      -0.160000
     34 H1          50.9050   -28.6970    39.7550 ha         1 VM5       0.151000
     35 H2          46.8010   -27.4030    39.2750 ha         1 VM5       0.146000
     36 H3          49.7440   -26.3630    36.3100 ha         1 VM5       0.143000
     37 H4          54.0820   -25.7290    34.0790 ha         1 VM5       0.145000
     38 H5          53.1570   -27.3520    32.4470 ha         1 VM5       0.136000
     39 H6          51.5330   -29.0360    31.8870 hc         1 VM5       0.083700
     40 H7          50.3380   -29.5710    33.0990 hc         1 VM5       0.083700
     41 H8          50.5700   -31.4370    34.0830 hn         1 VM5       0.172000
     42 H9          50.5310   -35.6140    35.9930 ha         1 VM5       0.157000
     43 H10         52.4480   -38.9420    33.6950 hn         1 VM5       0.481500
     44 H11         51.2170   -38.9480    34.6880 hn         1 VM5       0.481500
     45 H12         53.9590   -35.6460    33.3390 ha         1 VM5       0.136000
     46 H13         53.5140   -33.3180    32.7280 ha         1 VM5       0.158000
@<TRIPOS>BOND
     1     1     2 3   
     2     2     3 1   
     3     3     4 ar  
     4     3     5 ar  
     5     4     9 ar  
     6     4    34 1   
     7     5     6 ar  
     8     5    35 1   
     9     6     7 1   
    10     6     8 ar  
    11     8     9 ar  
    12     8    36 1   
    13     9    10 1   
    14    10    11 1   
    15    11    12 ar  
    16    11    14 ar  
    17    12    13 1   
    18    12    18 ar  
    19    14    15 1   
    20    14    16 ar  
    21    16    17 ar  
    22    16    37 1   
    23    17    18 ar  
    24    17    38 1   
    25    18    19 1   
    26    19    20 1   
    27    19    39 1   
    28    19    40 1   
    29    20    21 2   
    30    20    22 1   
    31    22    23 1   
    32    22    41 1   
    33    23    24 ar  
    34    23    33 ar  
    35    24    25 1   
    36    24    26 ar  
    37    26    27 ar  
    38    26    42 1   
    39    27    28 1   
    40    27    32 ar  
    41    28    29 2   
    42    28    30 2   
    43    28    31 1   
    44    31    43 1   
    45    31    44 1   
    46    32    33 ar  
    47    32    45 1   
    48    33    46 1   
@<TRIPOS>SUBSTRUCTURE
     1 VM5         1 TEMP              0 ****  ****    0 ROOT
