@<TRIPOS>MOLECULE
VM7
   30    31     1     0     0
SMALL
bcc


@<TRIPOS>ATOM
      1 C            4.8730    -0.3430     0.8230 c          1 VM7       0.923200
      2 O            4.7160    -1.4710     1.3250 o          1 VM7      -0.822300
      3 C1           3.6280     0.3430     0.2730 ca         1 VM7      -0.134600
      4 C10         -0.0720    -1.8440    -0.5820 ca         1 VM7      -0.069000
      5 C11          1.3260     1.5780    -0.7300 ca         1 VM7      -0.137000
      6 C12          2.5190     2.2800    -0.6540 ca         1 VM7      -0.166000
      7 C13          3.6520     1.6820    -0.1200 ca         1 VM7      -0.087000
      8 C2           2.4280    -0.3540     0.1760 ca         1 VM7      -0.084000
      9 C3           1.2650     0.2520    -0.3010 cp         1 VM7      -0.101000
     10 C4          -0.0170    -0.4810    -0.2850 cp         1 VM7      -0.004000
     11 C5          -1.2020     0.1740     0.0490 ca         1 VM7      -0.041000
     12 C6          -2.3970    -0.5260     0.0510 ca         1 VM7      -0.263500
     13 C7          -4.5300     0.8190    -1.1560 c3         1 VM7      -0.228300
     14 C8          -2.4570    -1.8770    -0.2660 ca         1 VM7      -0.064000
     15 C9          -1.2760    -2.5320    -0.5730 ca         1 VM7      -0.149000
     16 O1          -4.8380    -0.6350     1.0190 o          1 VM7      -0.604800
     17 O2          -3.5830     1.5330     1.1980 o          1 VM7      -0.604800
     18 O3           5.9460     0.2860     0.7140 o          1 VM7      -0.822300
     19 S           -3.9050     0.3280     0.4370 sy         1 VM7       1.087300
     20 H7           0.8320    -2.3690    -0.8610 ha         1 VM7       0.150000
     21 H8           0.4540     2.0610    -1.1500 ha         1 VM7       0.102000
     22 H9           2.5660     3.2960    -1.0200 ha         1 VM7       0.108000
     23 H10          4.5610     2.2580    -0.0080 ha         1 VM7       0.147000
     24 H            2.3970    -1.3850     0.5090 ha         1 VM7       0.148000
     25 H1          -1.1820     1.2280     0.2960 ha         1 VM7       0.157000
     26 H3          -3.8690     1.5720    -1.5770 h1         1 VM7       0.097367
     27 H4          -4.5730    -0.0480    -1.8120 h1         1 VM7       0.097367
     28 H2          -5.5280     1.2290    -1.0060 h1         1 VM7       0.097367
     29 H5          -3.3960    -2.4130    -0.2760 ha         1 VM7       0.140000
     30 H6          -1.2960    -3.5870    -0.8090 ha         1 VM7       0.129000
@<TRIPOS>BOND
     1     1     2 1   
     2     1     3 1   
     3     1    18 1   
     4     3     7 ar  
     5     3     8 ar  
     6     4    10 ar  
     7     4    15 ar  
     8     4    20 1   
     9     5     6 ar  
    10     5     9 ar  
    11     5    21 1   
    12     6     7 ar  
    13     6    22 1   
    14     7    23 1   
    15     8     9 ar  
    16     8    24 1   
    17     9    10 1   
    18    10    11 ar  
    19    11    12 ar  
    20    11    25 1   
    21    12    14 ar  
    22    12    19 1   
    23    13    19 1   
    24    13    26 1   
    25    13    27 1   
    26    13    28 1   
    27    14    15 ar  
    28    14    29 1   
    29    15    30 1   
    30    16    19 2   
    31    17    19 2   
@<TRIPOS>SUBSTRUCTURE
     1 VM7         1 TEMP              0 ****  ****    0 ROOT
