@<TRIPOS>MOLECULE
VM7
   30    31     1     0     0
SMALL
No Charge or Current Charge


@<TRIPOS>ATOM
      1 C            4.9660    -0.3220     0.7630 c          1 VM7       0.712600
      2 O            4.9050    -1.4860     1.1350 o          1 VM7      -0.717000
      3 C1           3.6970     0.3500     0.2630 ca         1 VM7      -0.134600
      4 C10         -0.0630    -1.8800    -0.5340 ca         1 VM7      -0.051000
      5 C11          1.3340     1.6010    -0.6620 ca         1 VM7      -0.119000
      6 C12          2.5460     2.3060    -0.6510 ca         1 VM7      -0.148000
      7 C13          3.7200     1.6880    -0.1930 ca         1 VM7      -0.069000
      8 C2           2.4660    -0.3480     0.2440 ca         1 VM7      -0.066000
      9 C3           1.2690     0.2590    -0.2150 cp         1 VM7      -0.101000
     10 C4          -0.0260    -0.4960    -0.2280 cp         1 VM7      -0.004000
     11 C5          -1.2530     0.1520     0.0640 ca         1 VM7      -0.023000
     12 C6          -2.4750    -0.5550     0.0540 ca         1 VM7      -0.263500
     13 C7          -4.5570     0.8840    -1.1880 c3         1 VM7      -0.339100
     14 C8          -2.4830    -1.9290    -0.2590 ca         1 VM7      -0.046000
     15 C9          -1.2770    -2.5870    -0.5500 ca         1 VM7      -0.131000
     16 O1          -5.0190    -0.6770     0.8680 o          1 VM7      -0.534000
     17 O2          -3.7230     1.5020     1.2190 o          1 VM7      -0.534000
     18 O3           6.0040     0.3240     0.7760 o          1 VM7      -0.717000
     19 S           -4.0210     0.3050     0.4220 sy         1 VM7       1.056500
     20 H7           0.8560    -2.4070    -0.7770 ha         1 VM7       0.132000
     21 H8           0.4410     2.0970    -1.0340 ha         1 VM7       0.084000
     22 H9           2.5780     3.3350    -1.0010 ha         1 VM7       0.090000
     23 H10          4.6500     2.2540    -0.1930 ha         1 VM7       0.129000
     24 H            2.4320    -1.3730     0.6050 ha         1 VM7       0.130000
     25 H1          -1.2470     1.2110     0.3120 ha         1 VM7       0.139000
     26 H3          -3.7830     1.5450    -1.5890 h1         1 VM7       0.097367
     27 H4          -4.6940     0.0120    -1.8360 h1         1 VM7       0.097367
     28 H2          -5.5010     1.4240    -1.0600 h1         1 VM7       0.097367
     29 H5          -3.4160    -2.4900    -0.2780 ha         1 VM7       0.122000
     30 H6          -1.2840    -3.6470    -0.7930 ha         1 VM7       0.111000
@<TRIPOS>BOND
     1     1     2 1   
     2     1     3 1   
     3     1    18 1   
     4     3     7 ar  
     5     3     8 ar  
     6     4    10 ar  
     7     4    15 ar  
     8     4    20 1   
     9     5     6 ar  
    10     5     9 ar  
    11     5    21 1   
    12     6     7 ar  
    13     6    22 1   
    14     7    23 1   
    15     8     9 ar  
    16     8    24 1   
    17     9    10 1   
    18    10    11 ar  
    19    11    12 ar  
    20    11    25 1   
    21    12    14 ar  
    22    12    19 1   
    23    13    19 1   
    24    13    26 1   
    25    13    27 1   
    26    13    28 1   
    27    14    15 ar  
    28    14    29 1   
    29    15    30 1   
    30    16    19 2   
    31    17    19 2   
@<TRIPOS>SUBSTRUCTURE
     1 VM7         1 TEMP              0 ****  ****    0 ROOT
