@<TRIPOS>MOLECULE
VM8
   43    46     1     0     0
SMALL
abcg2


@<TRIPOS>ATOM
      1 C1         -15.2530   -25.1380     7.5360 cc         1 VM8      -0.052300
      2 C3         -15.5240   -23.8970     7.0620 cd         1 VM8      -0.138000
      3 C11        -17.9180   -24.3600     6.7810 ca         1 VM8      -0.009000
      4 C13        -17.7220   -27.7090     7.9480 cc         1 VM8      -0.053400
      5 C14        -17.0710   -22.1620     6.1940 ca         1 VM8      -0.103000
      6 C15        -12.1450   -27.4540     7.3400 ca         1 VM8      -0.080300
      7 C16        -19.2080   -23.9500     6.4060 ca         1 VM8      -0.067000
      8 C17        -18.3430   -21.7710     5.8300 ca         1 VM8      -0.100000
      9 C18        -10.9140   -27.0350     6.8290 ca         1 VM8      -0.107000
     10 C19        -12.1620   -28.5490     8.2080 ca         1 VM8      -0.107000
     11 C20        -19.4160   -22.6700     5.9370 ca         1 VM8      -0.113000
     12 C21         -9.7330   -27.6780     7.1870 ca         1 VM8      -0.109000
     13 C22        -10.9850   -29.1940     8.5710 ca         1 VM8      -0.109000
     14 C23         -9.7640   -28.7570     8.0650 ca         1 VM8      -0.109000
     15 N2         -16.3380   -26.0250     7.6400 na         1 VM8       0.100100
     16 C4         -13.8570   -25.5970     7.9420 c3         1 VM8       0.005300
     17 C5         -17.6390   -25.6720     7.2760 cd         1 VM8      -0.064000
     18 C6         -16.4110   -27.3410     8.0710 cd         1 VM8      -0.262100
     19 C7         -16.8330   -23.4630     6.6760 ca         1 VM8      -0.031000
     20 C8         -13.4240   -26.7500     6.9710 c3         1 VM8      -0.030100
     21 C9         -12.8470   -24.4500     7.7930 c3         1 VM8      -0.088600
     22 C10        -13.8350   -26.0030     9.4310 c3         1 VM8      -0.088600
     23 N12        -18.4790   -26.6800     7.4580 nc         1 VM8      -0.287600
     24 H1         -14.7210   -23.1860     6.9640 ha         1 VM8       0.128000
     25 H2         -18.1530   -28.6670     8.1900 h4         1 VM8       0.226000
     26 H3         -16.2390   -21.4730     6.1120 ha         1 VM8       0.113000
     27 H4         -20.0300   -24.6480     6.4920 ha         1 VM8       0.138000
     28 H5         -18.5150   -20.7680     5.4610 ha         1 VM8       0.115000
     29 H6         -10.8820   -26.2000     6.1400 ha         1 VM8       0.109500
     30 H7         -13.1080   -28.8990     8.6020 ha         1 VM8       0.109500
     31 H8         -20.4120   -22.3550     5.6510 ha         1 VM8       0.117000
     32 H9          -8.7900   -27.3380     6.7780 ha         1 VM8       0.113500
     33 H10        -11.0210   -30.0400     9.2460 ha         1 VM8       0.113500
     34 H11         -8.8460   -29.2590     8.3440 ha         1 VM8       0.114000
     35 H12        -15.5670   -27.9020     8.4150 h4         1 VM8       0.229000
     36 H13        -13.3220   -26.3020     5.9810 hc         1 VM8       0.056200
     37 H14        -14.2160   -27.4910     6.9000 hc         1 VM8       0.056200
     38 H15        -13.1090   -23.6070     8.4320 hc         1 VM8       0.043700
     39 H16        -11.8630   -24.8050     8.0980 hc         1 VM8       0.043700
     40 H17        -12.7730   -24.1020     6.7630 hc         1 VM8       0.043700
     41 H18        -14.2030   -25.1730    10.0360 hc         1 VM8       0.043700
     42 H19        -14.4340   -26.8780     9.6630 hc         1 VM8       0.043700
     43 H20        -12.8100   -26.2160     9.7350 hc         1 VM8       0.043700
@<TRIPOS>BOND
     1     1     2 2   
     2     1    15 1   
     3     1    16 1   
     4     2    19 1   
     5     2    24 1   
     6     3     7 ar  
     7     3    17 1   
     8     3    19 ar  
     9     4    18 2   
    10     4    23 1   
    11     4    25 1   
    12     5     8 ar  
    13     5    19 ar  
    14     5    26 1   
    15     6     9 ar  
    16     6    10 ar  
    17     6    20 1   
    18     7    11 ar  
    19     7    27 1   
    20     8    11 ar  
    21     8    28 1   
    22     9    12 ar  
    23     9    29 1   
    24    10    13 ar  
    25    10    30 1   
    26    11    31 1   
    27    12    14 ar  
    28    12    32 1   
    29    13    14 ar  
    30    13    33 1   
    31    14    34 1   
    32    15    17 1   
    33    15    18 1   
    34    16    20 1   
    35    16    21 1   
    36    16    22 1   
    37    17    23 2   
    38    18    35 1   
    39    20    36 1   
    40    20    37 1   
    41    21    38 1   
    42    21    39 1   
    43    21    40 1   
    44    22    41 1   
    45    22    42 1   
    46    22    43 1   
@<TRIPOS>SUBSTRUCTURE
     1 VM8         1 TEMP              0 ****  ****    0 ROOT
