@<TRIPOS>MOLECULE
VM8
   43    46     1     0     0
SMALL
No Charge or Current Charge


@<TRIPOS>ATOM
      1 C1         -15.2680   -25.2270     7.5650 cc         1 VM8      -0.052300
      2 C3         -15.5780   -23.9530     7.0530 cd         1 VM8      -0.138000
      3 C11        -18.0300   -24.2810     6.7490 ca         1 VM8      -0.009000
      4 C13        -17.9410   -27.6330     7.9160 cc         1 VM8      -0.053400
      5 C14        -17.0650   -22.1390     6.1500 ca         1 VM8      -0.103000
      6 C15        -12.0410   -27.4940     7.3900 ca         1 VM8      -0.080300
      7 C16        -19.3060   -23.8240     6.3680 ca         1 VM8      -0.067000
      8 C17        -18.3360   -21.6740     5.7670 ca         1 VM8      -0.100000
      9 C18        -10.8750   -27.0390     6.7420 ca         1 VM8      -0.107000
     10 C19        -11.9440   -28.5450     8.3230 ca         1 VM8      -0.107000
     11 C20        -19.4570   -22.5160     5.8760 ca         1 VM8      -0.113000
     12 C21         -9.6260   -27.6120     7.0390 ca         1 VM8      -0.109000
     13 C22        -10.6950   -29.1190     8.6200 ca         1 VM8      -0.109000
     14 C23         -9.5360   -28.6510     7.9800 ca         1 VM8      -0.109000
     15 N2         -16.4740   -26.0200     7.6260 na         1 VM8       0.100100
     16 C4         -13.8660   -25.7120     7.9960 c3         1 VM8       0.005300
     17 C5         -17.7690   -25.6110     7.2620 cd         1 VM8      -0.064000
     18 C6         -16.6030   -27.3380     8.0440 cd         1 VM8      -0.262100
     19 C7         -16.9090   -23.4480     6.6440 ca         1 VM8      -0.031000
     20 C8         -13.4020   -26.8790     7.0570 c3         1 VM8      -0.030100
     21 C9         -12.8160   -24.5640     7.8810 c3         1 VM8      -0.088600
     22 C10        -13.8770   -26.1230     9.4990 c3         1 VM8      -0.088600
     23 N12        -18.6550   -26.5730     7.4350 nc         1 VM8      -0.287600
     24 H1         -14.7730   -23.2400     6.9350 ha         1 VM8       0.128000
     25 H2         -18.4460   -28.5700     8.1420 h4         1 VM8       0.226000
     26 H3         -16.2030   -21.4810     6.0630 ha         1 VM8       0.113000
     27 H4         -20.1720   -24.4770     6.4510 ha         1 VM8       0.138000
     28 H5         -18.4520   -20.6610     5.3870 ha         1 VM8       0.115000
     29 H6         -10.9350   -26.2360     6.0100 ha         1 VM8       0.109500
     30 H7         -12.8360   -28.9190     8.8210 ha         1 VM8       0.109500
     31 H8         -20.4400   -22.1560     5.5790 ha         1 VM8       0.117000
     32 H9          -8.7300   -27.2520     6.5390 ha         1 VM8       0.113500
     33 H10        -10.6270   -29.9270     9.3460 ha         1 VM8       0.113500
     34 H11         -8.5690   -29.0950     8.2100 ha         1 VM8       0.114000
     35 H12        -15.7930   -27.9670     8.3820 h4         1 VM8       0.229000
     36 H13        -13.3880   -26.5040     6.0260 hc         1 VM8       0.056200
     37 H14        -14.1460   -27.6790     7.0430 hc         1 VM8       0.056200
     38 H15        -13.1130   -23.6960     8.4830 hc         1 VM8       0.043700
     39 H16        -11.8320   -24.8810     8.2460 hc         1 VM8       0.043700
     40 H17        -12.6920   -24.2390     6.8410 hc         1 VM8       0.043700
     41 H18        -14.3080   -25.3210    10.1100 hc         1 VM8       0.043700
     42 H19        -14.4520   -27.0310     9.6910 hc         1 VM8       0.043700
     43 H20        -12.8610   -26.3070     9.8670 hc         1 VM8       0.043700
@<TRIPOS>BOND
     1     1     2 2   
     2     1    15 1   
     3     1    16 1   
     4     2    19 1   
     5     2    24 1   
     6     3     7 ar  
     7     3    17 1   
     8     3    19 ar  
     9     4    18 2   
    10     4    23 1   
    11     4    25 1   
    12     5     8 ar  
    13     5    19 ar  
    14     5    26 1   
    15     6     9 ar  
    16     6    10 ar  
    17     6    20 1   
    18     7    11 ar  
    19     7    27 1   
    20     8    11 ar  
    21     8    28 1   
    22     9    12 ar  
    23     9    29 1   
    24    10    13 ar  
    25    10    30 1   
    26    11    31 1   
    27    12    14 ar  
    28    12    32 1   
    29    13    14 ar  
    30    13    33 1   
    31    14    34 1   
    32    15    17 1   
    33    15    18 1   
    34    16    20 1   
    35    16    21 1   
    36    16    22 1   
    37    17    23 2   
    38    18    35 1   
    39    20    36 1   
    40    20    37 1   
    41    21    38 1   
    42    21    39 1   
    43    21    40 1   
    44    22    41 1   
    45    22    42 1   
    46    22    43 1   
@<TRIPOS>SUBSTRUCTURE
     1 VM8         1 TEMP              0 ****  ****    0 ROOT
