@<TRIPOS>MOLECULE
VMA
   43    46     1     0     0
SMALL
No Charge or Current Charge


@<TRIPOS>ATOM
      1 C5          36.7940   -17.1350    14.8890 cc         1 VMA       0.154400
      2 C6          36.6360   -16.5300    16.0830 cd         1 VMA      -0.339600
      3 C21         41.3160   -17.2710    10.5090 ca         1 VMA      -0.147000
      4 C24         43.8080   -18.2380    11.1470 ca         1 VMA       0.345900
      5 O11         37.6230   -15.3490    17.8780 o          1 VMA      -0.512000
      6 C1          37.7390   -15.9050    16.7950 c          1 VMA       0.624600
      7 C7          35.2780   -16.6420    16.4300 cd         1 VMA       0.324900
      8 N8          34.5710   -17.2870    15.5120 nc         1 VMA      -0.518800
      9 N9          35.5240   -17.5940    14.5510 na         1 VMA       0.130800
     10 C10         35.1520   -18.3230    13.3320 c3         1 VMA       0.078900
     11 N4          37.9880   -17.2260    14.2190 nc         1 VMA      -0.676100
     12 C3          39.0140   -16.6660    14.8650 cd         1 VMA       0.538800
     13 N2          38.9450   -16.0110    16.1040 n          1 VMA      -0.257500
     14 C12         40.1960   -15.4980    16.5830 ca         1 VMA       0.013600
     15 C17         41.0480   -16.3160    17.3500 ca         1 VMA      -0.079500
     16 C16         42.2680   -15.8090    17.8300 ca         1 VMA      -0.106500
     17 C15         42.6360   -14.4800    17.5510 ca         1 VMA      -0.095000
     18 C14         41.7810   -13.6580    16.7970 ca         1 VMA      -0.106500
     19 C13         40.5600   -14.1650    16.3170 ca         1 VMA      -0.079500
     20 S18         40.6000   -16.7030    14.0440 ss         1 VMA      -0.161200
     21 C19         40.4680   -18.0570    12.7810 c3         1 VMA       0.013000
     22 C26         40.4500   -19.4400    13.4800 c3         1 VMA      -0.080100
     23 C20         41.5810   -17.9070    11.7380 ca         1 VMA       0.349300
     24 N25         42.8140   -18.3800    12.0550 nb         1 VMA      -0.669000
     25 C23         43.6190   -17.6210     9.8990 ca         1 VMA      -0.160000
     26 C22         42.3490   -17.1240     9.5680 ca         1 VMA      -0.070000
     27 H2          44.7840   -18.6290    11.4300 h4         1 VMA       0.023100
     28 H3          34.7840   -16.2730    17.3210 h4         1 VMA       0.052100
     29 H4          34.2380   -18.9040    13.5070 h1         1 VMA       0.059033
     30 H5          34.9800   -17.6080    12.5190 h1         1 VMA       0.059033
     31 H6          35.9640   -19.0040    13.0500 h1         1 VMA       0.059033
     32 H7          40.7660   -17.3440    17.5690 ha         1 VMA       0.125500
     33 H8          42.9280   -16.4440    18.4170 ha         1 VMA       0.118000
     34 H9          43.5800   -14.0880    17.9230 ha         1 VMA       0.115000
     35 H10         42.0630   -12.6290    16.5860 ha         1 VMA       0.118000
     36 H11         39.9000   -13.5250    15.7360 ha         1 VMA       0.125500
     37 H12         39.5150   -17.9330    12.2520 h1         1 VMA       0.098700
     38 H13         39.5820   -19.5350    14.1410 hc         1 VMA       0.050367
     39 H14         40.3970   -20.2440    12.7370 hc         1 VMA       0.050367
     40 H15         41.3530   -19.5880    14.0850 hc         1 VMA       0.050367
     41 H16         44.4500   -17.5310     9.2060 ha         1 VMA       0.127000
     42 H17         42.1690   -16.6380     8.6110 ha         1 VMA       0.122000
     43 H1          40.3210   -16.8940    10.2900 ha         1 VMA       0.126000
@<TRIPOS>BOND
     1     1     2 2   
     2     1     9 1   
     3     1    11 1   
     4     2     6 1   
     5     2     7 1   
     6     3    23 ar  
     7     3    26 ar  
     8     3    43 1   
     9     4    24 ar  
    10     4    25 ar  
    11     4    27 1   
    12     5     6 2   
    13     6    13 1   
    14     7     8 2   
    15     7    28 1   
    16     8     9 1   
    17     9    10 1   
    18    10    29 1   
    19    10    30 1   
    20    10    31 1   
    21    11    12 2   
    22    12    13 1   
    23    12    20 1   
    24    13    14 1   
    25    14    15 ar  
    26    14    19 ar  
    27    15    16 ar  
    28    15    32 1   
    29    16    17 ar  
    30    16    33 1   
    31    17    18 ar  
    32    17    34 1   
    33    18    19 ar  
    34    18    35 1   
    35    19    36 1   
    36    20    21 1   
    37    21    22 1   
    38    21    23 1   
    39    21    37 1   
    40    22    38 1   
    41    22    39 1   
    42    22    40 1   
    43    23    24 ar  
    44    25    26 ar  
    45    25    41 1   
    46    26    42 1   
@<TRIPOS>SUBSTRUCTURE
     1 VMA         1 TEMP              0 ****  ****    0 ROOT
