@<TRIPOS>MOLECULE
VMA
   43    46     1     0     0
SMALL
bcc


@<TRIPOS>ATOM
      1 C5          36.9080   -17.1200    14.9470 cc         1 VMA       0.205100
      2 C6          36.7290   -16.4170    16.1300 cd         1 VMA      -0.404900
      3 C21         41.2020   -17.6900    10.3960 ca         1 VMA      -0.230300
      4 C24         43.7050   -17.5850    11.4340 ca         1 VMA       0.411200
      5 O11         37.8930   -15.2050    17.8070 o          1 VMA      -0.587500
      6 C1          37.8620   -15.8440    16.7750 c          1 VMA       0.767100
      7 C7          35.3430   -16.4840    16.3740 cd         1 VMA       0.390200
      8 N8          34.7440   -17.1640    15.4260 nc         1 VMA      -0.518800
      9 N9          35.7000   -17.5510    14.5620 na         1 VMA       0.109400
     10 C10         35.3660   -18.3180    13.3880 c3         1 VMA       0.049600
     11 N4          38.0730   -17.3330    14.3060 nc         1 VMA      -0.676100
     12 C3          39.1040   -16.8150    14.8850 cd         1 VMA       0.538800
     13 N2          39.0560   -16.0990    16.0570 n          1 VMA      -0.324500
     14 C12         40.2630   -15.5610    16.6070 ca         1 VMA       0.013600
     15 C17         41.0000   -16.3190    17.5050 ca         1 VMA      -0.097500
     16 C16         42.1710   -15.7950    18.0330 ca         1 VMA      -0.124500
     17 C15         42.5940   -14.5240    17.6650 ca         1 VMA      -0.113000
     18 C14         41.8460   -13.7730    16.7670 ca         1 VMA      -0.124500
     19 C13         40.6740   -14.2900    16.2350 ca         1 VMA      -0.097500
     20 S18         40.7070   -16.9860    14.1970 ss         1 VMA      -0.113300
     21 C19         40.3290   -18.0170    12.7310 c3         1 VMA      -0.034900
     22 C26         40.1950   -19.4860    13.1050 c3         1 VMA      -0.080100
     23 C20         41.4550   -17.7930    11.7580 ca         1 VMA       0.414600
     24 N25         42.6820   -17.7420    12.2650 nb         1 VMA      -0.669000
     25 C23         43.5570   -17.4800    10.0590 ca         1 VMA      -0.243300
     26 C22         42.2750   -17.5350     9.5320 ca         1 VMA      -0.088000
     27 H2          44.6900   -17.5390    11.8840 h4         1 VMA       0.023100
     28 H3          34.7790   -16.0660    17.1930 h4         1 VMA       0.052100
     29 H4          34.8160   -19.2120    13.6730 h1         1 VMA       0.059033
     30 H5          34.7640   -17.7260    12.7020 h1         1 VMA       0.059033
     31 H6          36.2860   -18.6110    12.8910 h1         1 VMA       0.059033
     32 H7          40.6630   -17.3090    17.7820 ha         1 VMA       0.143500
     33 H8          42.7520   -16.3810    18.7330 ha         1 VMA       0.136000
     34 H9          43.5080   -14.1190    18.0790 ha         1 VMA       0.133000
     35 H10         42.1720   -12.7820    16.4820 ha         1 VMA       0.136000
     36 H11         40.0830   -13.7140    15.5350 ha         1 VMA       0.143500
     37 H12         39.3940   -17.6520    12.3070 h1         1 VMA       0.098700
     38 H13         39.3910   -19.6310    13.8240 hc         1 VMA       0.050367
     39 H14         39.9590   -20.0730    12.2160 hc         1 VMA       0.050367
     40 H15         41.1220   -19.8660    13.5320 hc         1 VMA       0.050367
     41 H16         44.4220   -17.3540     9.4240 ha         1 VMA       0.145000
     42 H17         42.1130   -17.4530     8.4650 ha         1 VMA       0.140000
     43 H1          40.1870   -17.7310    10.0220 ha         1 VMA       0.144000
@<TRIPOS>BOND
     1     1     2 2   
     2     1     9 1   
     3     1    11 1   
     4     2     6 1   
     5     2     7 1   
     6     3    23 ar  
     7     3    26 ar  
     8     3    43 1   
     9     4    24 ar  
    10     4    25 ar  
    11     4    27 1   
    12     5     6 2   
    13     6    13 1   
    14     7     8 2   
    15     7    28 1   
    16     8     9 1   
    17     9    10 1   
    18    10    29 1   
    19    10    30 1   
    20    10    31 1   
    21    11    12 2   
    22    12    13 1   
    23    12    20 1   
    24    13    14 1   
    25    14    15 ar  
    26    14    19 ar  
    27    15    16 ar  
    28    15    32 1   
    29    16    17 ar  
    30    16    33 1   
    31    17    18 ar  
    32    17    34 1   
    33    18    19 ar  
    34    18    35 1   
    35    19    36 1   
    36    20    21 1   
    37    21    22 1   
    38    21    23 1   
    39    21    37 1   
    40    22    38 1   
    41    22    39 1   
    42    22    40 1   
    43    23    24 ar  
    44    25    26 ar  
    45    25    41 1   
    46    26    42 1   
@<TRIPOS>SUBSTRUCTURE
     1 VMA         1 TEMP              0 ****  ****    0 ROOT
