@<TRIPOS>MOLECULE
VMB
   55    57     1     0     0
SMALL
No Charge or Current Charge


@<TRIPOS>ATOM
      1 C1           3.8930   -18.7480    21.6150 c3         1 VMB       0.090300
      2 C10         10.4680   -19.9720    20.5350 ca         1 VMB      -0.129600
      3 C11         10.7280   -21.2590    21.0490 ca         1 VMB      -0.085000
      4 C12         11.9330   -21.9070    20.7330 ca         1 VMB      -0.108000
      5 C13         12.8720   -21.2760    19.9010 ca         1 VMB      -0.092000
      6 C14         12.6000   -20.0040    19.3680 ca         1 VMB      -0.105000
      7 C15         11.3900   -19.3260    19.6580 cp         1 VMB       0.000000
      8 C16         11.1130   -18.0170    18.9880 cp         1 VMB      -0.002000
      9 C17         12.0310   -16.9460    19.0820 ca         1 VMB      -0.097500
     10 C18         11.7850   -15.7190    18.4420 ca         1 VMB      -0.059500
     11 C19         10.6150   -15.5340    17.6750 ca         1 VMB      -0.185300
     12 C20          9.6950   -16.5980    17.5680 ca         1 VMB      -0.059500
     13 C21          9.9450   -17.8220    18.2110 ca         1 VMB      -0.097500
     14 C22         10.3520   -14.1890    16.9860 c3         1 VMB       0.343300
     15 C26          6.3950   -18.5670    19.6160 ca         1 VMB      -0.124300
     16 C27          6.0530   -19.1950    18.4020 ca         1 VMB      -0.072000
     17 C28          5.7930   -18.4240    17.2580 ca         1 VMB      -0.124000
     18 C29          5.8820   -17.0240    17.3120 ca         1 VMB      -0.056000
     19 C3           3.2730   -21.2070    21.6210 c3         1 VMB       0.090300
     20 C30          6.2450   -16.3790    18.5150 ca         1 VMB      -0.192300
     21 C31          6.4910   -17.1620    19.6630 ca         1 VMB      -0.030000
     22 C32          6.3590   -14.8530    18.5870 c3         1 VMB       0.343300
     23 C4           5.6360   -20.5220    21.1110 c          1 VMB       0.588100
     24 C6           6.6950   -19.3940    20.8680 c3         1 VMB       0.087000
     25 F23          9.8500   -13.2820    17.8540 f          1 VMB      -0.113333
     26 F24         11.4830   -13.6570    16.4690 f          1 VMB      -0.113333
     27 F25          9.4710   -14.2890    15.9650 f          1 VMB      -0.113333
     28 F33          6.6040   -14.2920    17.3810 f          1 VMB      -0.109667
     29 F34          5.2200   -14.2980    19.0570 f          1 VMB      -0.109667
     30 F35          7.3590   -14.4560    19.4070 f          1 VMB      -0.109667
     31 N2           4.3040   -20.1600    21.4300 n          1 VMB      -0.398800
     32 N7           8.0540   -19.9570    20.7600 ns         1 VMB      -0.498900
     33 O5           5.9410   -21.7080    21.0040 o          1 VMB      -0.620100
     34 O9           9.2040   -18.0640    21.2700 o          1 VMB      -0.591100
     35 H1           2.8850   -18.6930    22.0460 h1         1 VMB       0.047700
     36 H2           4.5830   -18.2360    22.2980 h1         1 VMB       0.047700
     37 H3           3.8860   -18.2310    20.6470 h1         1 VMB       0.047700
     38 H4          10.0150   -21.7440    21.7120 ha         1 VMB       0.124000
     39 H5          12.1430   -22.8940    21.1390 ha         1 VMB       0.121000
     40 H6          13.8060   -21.7780    19.6580 ha         1 VMB       0.119000
     41 H7          13.3250   -19.5430    18.7010 ha         1 VMB       0.121000
     42 H8          12.9390   -17.0680    19.6680 ha         1 VMB       0.122000
     43 H9          12.5070   -14.9120    18.5460 ha         1 VMB       0.129000
     44 H10          8.7820   -16.4870    16.9870 ha         1 VMB       0.129000
     45 H11          9.2260   -18.6310    18.1040 ha         1 VMB       0.122000
     46 H12          5.9900   -20.2800    18.3400 ha         1 VMB       0.130000
     47 H13          5.5230   -18.9140    16.3250 ha         1 VMB       0.126000
     48 H14          5.6740   -16.4450    16.4140 ha         1 VMB       0.136000
     49 H15          2.2740   -20.7610    21.7010 h1         1 VMB       0.047700
     50 H16          3.2800   -21.8950    20.7660 h1         1 VMB       0.047700
     51 H17          3.4860   -21.7710    22.5380 h1         1 VMB       0.047700
     52 H18          6.7680   -16.6770    20.5980 ha         1 VMB       0.143000
     53 H19          6.6680   -18.7450    21.7530 h1         1 VMB       0.091700
     54 H20          8.1500   -20.9220    20.4640 hn         1 VMB       0.345500
     55 C8           9.2090   -19.2240    20.8790 c          1 VMB       0.610700
@<TRIPOS>BOND
     1     1    31 1   
     2     1    35 1   
     3     1    36 1   
     4     1    37 1   
     5     2     3 ar  
     6     2     7 ar  
     7     2    55 1   
     8     3     4 ar  
     9     3    38 1   
    10     4     5 ar  
    11     4    39 1   
    12     5     6 ar  
    13     5    40 1   
    14     6     7 ar  
    15     6    41 1   
    16     7     8 1   
    17     8     9 ar  
    18     8    13 ar  
    19     9    10 ar  
    20     9    42 1   
    21    10    11 ar  
    22    10    43 1   
    23    11    12 ar  
    24    11    14 1   
    25    12    13 ar  
    26    12    44 1   
    27    13    45 1   
    28    14    25 1   
    29    14    26 1   
    30    14    27 1   
    31    15    16 ar  
    32    15    21 ar  
    33    15    24 1   
    34    16    17 ar  
    35    16    46 1   
    36    17    18 ar  
    37    17    47 1   
    38    18    20 ar  
    39    18    48 1   
    40    19    31 1   
    41    19    49 1   
    42    19    50 1   
    43    19    51 1   
    44    20    21 ar  
    45    20    22 1   
    46    21    52 1   
    47    22    28 1   
    48    22    29 1   
    49    22    30 1   
    50    23    24 1   
    51    23    31 1   
    52    23    33 2   
    53    24    32 1   
    54    24    53 1   
    55    32    54 1   
    56    32    55 1   
    57    34    55 2   
@<TRIPOS>SUBSTRUCTURE
     1 VMB         1 TEMP              0 ****  ****    0 ROOT
