@<TRIPOS>MOLECULE
VMB
   55    57     1     0     0
SMALL
abcg2


@<TRIPOS>ATOM
      1 C1           3.9950   -18.8970    21.7080 c3         1 VMB       0.090300
      2 C10         10.4020   -19.9180    20.5880 ca         1 VMB      -0.129600
      3 C11         10.6950   -21.1300    21.2100 ca         1 VMB      -0.085000
      4 C12         11.9200   -21.7530    21.0060 ca         1 VMB      -0.108000
      5 C13         12.8610   -21.1610    20.1710 ca         1 VMB      -0.092000
      6 C14         12.5650   -19.9630    19.5330 ca         1 VMB      -0.105000
      7 C15         11.3390   -19.3210    19.7290 cp         1 VMB       0.000000
      8 C16         11.0430   -18.0820    18.9690 cp         1 VMB      -0.002000
      9 C17         11.9600   -17.0290    18.9500 ca         1 VMB      -0.097500
     10 C18         11.7150   -15.8860    18.2030 ca         1 VMB      -0.059500
     11 C19         10.5340   -15.7770    17.4740 ca         1 VMB      -0.185300
     12 C20          9.6040   -16.8120    17.4930 ca         1 VMB      -0.059500
     13 C21          9.8600   -17.9540    18.2350 ca         1 VMB      -0.097500
     14 C22         10.2960   -14.5680    16.6230 c3         1 VMB       0.343300
     15 C26          6.3930   -18.4190    19.6700 ca         1 VMB      -0.124300
     16 C27          6.1830   -18.9390    18.3940 ca         1 VMB      -0.072000
     17 C28          5.9850   -18.0910    17.3120 ca         1 VMB      -0.124000
     18 C29          6.0140   -16.7140    17.4900 ca         1 VMB      -0.056000
     19 C3           3.4450   -21.3170    21.2460 c3         1 VMB       0.090300
     20 C30          6.2310   -16.1970    18.7630 ca         1 VMB      -0.192300
     21 C31          6.4190   -17.0430    19.8500 ca         1 VMB      -0.030000
     22 C32          6.2620   -14.7140    18.9790 c3         1 VMB       0.343300
     23 C4           5.6700   -20.5090    20.8870 c          1 VMB       0.588100
     24 C6           6.6760   -19.3510    20.8400 c3         1 VMB       0.087000
     25 F23         10.7560   -13.4330    17.1950 f          1 VMB      -0.113333
     26 F24         10.9240   -14.6620    15.4180 f          1 VMB      -0.113333
     27 F25          8.9910   -14.3680    16.3490 f          1 VMB      -0.113333
     28 F33          6.5390   -14.0310    17.8520 f          1 VMB      -0.109667
     29 F34          5.0690   -14.2400    19.4330 f          1 VMB      -0.109667
     30 F35          7.1830   -14.3430    19.8980 f          1 VMB      -0.109667
     31 N2           4.4340   -20.2410    21.3330 n          1 VMB      -0.398800
     32 N7           7.9990   -19.9330    20.7130 ns         1 VMB      -0.498900
     33 O5           6.0090   -21.6300    20.4960 o          1 VMB      -0.620100
     34 O9           9.1010   -18.0600    21.3400 o          1 VMB      -0.591100
     35 H1           2.9790   -18.9610    22.0860 h1         1 VMB       0.047700
     36 H2           4.6270   -18.4820    22.4930 h1         1 VMB       0.047700
     37 H3           3.9960   -18.2180    20.8530 h1         1 VMB       0.047700
     38 H4           9.9710   -21.5700    21.8830 ha         1 VMB       0.124000
     39 H5          12.1420   -22.6880    21.5050 ha         1 VMB       0.121000
     40 H6          13.8160   -21.6400    20.0000 ha         1 VMB       0.119000
     41 H7          13.2840   -19.5220    18.8540 ha         1 VMB       0.121000
     42 H8          12.8740   -17.1010    19.5240 ha         1 VMB       0.122000
     43 H9          12.4350   -15.0790    18.2000 ha         1 VMB       0.129000
     44 H10          8.6780   -16.7210    16.9420 ha         1 VMB       0.129000
     45 H11          9.1390   -18.7610    18.2300 ha         1 VMB       0.122000
     46 H12          6.1680   -20.0110    18.2420 ha         1 VMB       0.130000
     47 H13          5.8280   -18.5030    16.3240 ha         1 VMB       0.126000
     48 H14          5.8770   -16.0500    16.6480 ha         1 VMB       0.136000
     49 H15          2.5010   -20.9550    21.6420 h1         1 VMB       0.047700
     50 H16          3.3040   -21.6280    20.2090 h1         1 VMB       0.047700
     51 H17          3.7720   -22.1810    21.8240 h1         1 VMB       0.047700
     52 H18          6.5960   -16.6390    20.8370 ha         1 VMB       0.143000
     53 H19          6.6340   -18.7850    21.7690 h1         1 VMB       0.091700
     54 H20          8.0380   -20.8630    20.3200 hn         1 VMB       0.345500
     55 C8           9.1190   -19.2140    20.9120 c          1 VMB       0.610700
@<TRIPOS>BOND
     1     1    31 1   
     2     1    35 1   
     3     1    36 1   
     4     1    37 1   
     5     2     3 ar  
     6     2     7 ar  
     7     2    55 1   
     8     3     4 ar  
     9     3    38 1   
    10     4     5 ar  
    11     4    39 1   
    12     5     6 ar  
    13     5    40 1   
    14     6     7 ar  
    15     6    41 1   
    16     7     8 1   
    17     8     9 ar  
    18     8    13 ar  
    19     9    10 ar  
    20     9    42 1   
    21    10    11 ar  
    22    10    43 1   
    23    11    12 ar  
    24    11    14 1   
    25    12    13 ar  
    26    12    44 1   
    27    13    45 1   
    28    14    25 1   
    29    14    26 1   
    30    14    27 1   
    31    15    16 ar  
    32    15    21 ar  
    33    15    24 1   
    34    16    17 ar  
    35    16    46 1   
    36    17    18 ar  
    37    17    47 1   
    38    18    20 ar  
    39    18    48 1   
    40    19    31 1   
    41    19    49 1   
    42    19    50 1   
    43    19    51 1   
    44    20    21 ar  
    45    20    22 1   
    46    21    52 1   
    47    22    28 1   
    48    22    29 1   
    49    22    30 1   
    50    23    24 1   
    51    23    31 1   
    52    23    33 2   
    53    24    32 1   
    54    24    53 1   
    55    32    54 1   
    56    32    55 1   
    57    34    55 2   
@<TRIPOS>SUBSTRUCTURE
     1 VMB         1 TEMP              0 ****  ****    0 ROOT
