@<TRIPOS>MOLECULE
VMC
   55    58     1     0     0
SMALL
abcg2


@<TRIPOS>ATOM
      1 O26          0.3170     4.6080     0.0470 oh         1 VMC      -0.513100
      2 C22          0.2950     3.2630     0.0950 ca         1 VMC       0.115100
      3 C21         -0.7140     2.4900    -0.4510 ca         1 VMC      -0.183000
      4 C20         -0.6700     1.1020    -0.3790 ca         1 VMC      -0.087000
      5 C23          1.3710     2.6300     0.7450 ca         1 VMC       0.106100
      6 O27          2.3170     3.4510     1.2430 os         1 VMC      -0.322100
      7 C28          3.4600     2.8650     1.8300 c3         1 VMC       0.142900
      8 C24          1.3910     1.2510     0.8390 ca         1 VMC      -0.145000
      9 C19          0.3810     0.4660     0.2670 ca         1 VMC      -0.021000
     10 C9           0.4850    -0.9920     0.3650 cc         1 VMC      -0.127000
     11 C10          1.5550    -1.8400     0.1460 cd         1 VMC       0.299500
     12 C13          2.8910    -1.5400    -0.3750 ca         1 VMC      -0.103500
     13 C18          3.1150    -0.4980    -1.2790 ca         1 VMC      -0.094000
     14 C17          4.3870    -0.2420    -1.7680 ca         1 VMC      -0.119500
     15 C16          5.4620    -1.0290    -1.3740 ca         1 VMC      -0.113000
     16 C15          5.2500    -2.0770    -0.4870 ca         1 VMC      -0.119500
     17 C14          3.9780    -2.3300     0.0060 ca         1 VMC      -0.094000
     18 N11          1.2080    -3.1200     0.4730 nd         1 VMC      -0.670000
     19 C12         -0.0370    -3.0620     0.8620 cc         1 VMC       0.389400
     20 N8          -0.5260    -1.8060     0.8200 na         1 VMC      -0.155500
     21 C7          -1.8960    -1.4450     1.1380 c3         1 VMC       0.067600
     22 C6          -2.8650    -1.8310     0.0290 c3         1 VMC      -0.086400
     23 C3          -4.2310    -1.1810     0.2170 c5         1 VMC       0.165500
     24 N2          -4.1250     0.2780     0.0730 n3         1 VMC      -0.719600
     25 C25         -4.7720     1.0160     1.1390 c3         1 VMC       0.152100
     26 C4          -5.2510    -1.6700    -0.8450 c5         1 VMC      -0.098400
     27 C5          -5.8330    -0.3870    -1.4340 c5         1 VMC      -0.112400
     28 C1          -4.6730     0.5870    -1.2420 c5         1 VMC       0.152800
     29 H1          -0.4710     4.9360    -0.4010 ho         1 VMC       0.458000
     30 H2          -1.5470     2.9720    -0.9500 ha         1 VMC       0.115000
     31 H3          -1.4740     0.5360    -0.8270 ha         1 VMC       0.128000
     32 H4           4.1200     3.6830     2.1070 h1         1 VMC       0.041700
     33 H5           3.2140     2.2940     2.7290 h1         1 VMC       0.041700
     34 H6           3.9860     2.2090     1.1300 h1         1 VMC       0.041700
     35 H7           2.1980     0.7530     1.3600 ha         1 VMC       0.132000
     36 H8           2.2870     0.1130    -1.6130 ha         1 VMC       0.122500
     37 H9           4.5350     0.5690    -2.4680 ha         1 VMC       0.110000
     38 H10          6.4550    -0.8310    -1.7580 ha         1 VMC       0.109000
     39 H11          6.0780    -2.7010    -0.1770 ha         1 VMC       0.110000
     40 H12          3.8240    -3.1470     0.7000 ha         1 VMC       0.122500
     41 H13         -0.6370    -3.8990     1.1880 h5         1 VMC       0.053100
     42 H14         -2.1710    -1.9360     2.0730 h1         1 VMC       0.070700
     43 H15         -1.9350    -0.3710     1.3110 h1         1 VMC       0.070700
     44 H16         -2.4590    -1.5280    -0.9420 hc         1 VMC       0.054700
     45 H17         -2.9750    -2.9190    -0.0050 hc         1 VMC       0.054700
     46 H18         -4.5960    -1.4160     1.2230 h1         1 VMC       0.049700
     47 H20         -4.3420     0.7300     2.0990 h1         1 VMC       0.032033
     48 H21         -4.5910     2.0840     1.0100 h1         1 VMC       0.032033
     49 H22         -5.8600     0.8670     1.2080 h1         1 VMC       0.032033
     50 H23         -4.7360    -2.2400    -1.6230 hc         1 VMC       0.050700
     51 H24         -6.0070    -2.3260    -0.4140 hc         1 VMC       0.050700
     52 H25         -6.1400    -0.4940    -2.4750 hc         1 VMC       0.051200
     53 H26         -6.7070    -0.0550    -0.8670 hc         1 VMC       0.051200
     54 H27         -4.9540     1.6390    -1.3090 h1         1 VMC       0.053700
     55 H28         -3.9120     0.4110    -2.0110 h1         1 VMC       0.053700
@<TRIPOS>BOND
     1     1     2 1   
     2     1    29 1   
     3     2     3 ar  
     4     2     5 ar  
     5     3     4 ar  
     6     3    30 1   
     7     4     9 ar  
     8     4    31 1   
     9     5     6 1   
    10     5     8 ar  
    11     6     7 1   
    12     7    32 1   
    13     7    33 1   
    14     7    34 1   
    15     8     9 ar  
    16     8    35 1   
    17     9    10 1   
    18    10    11 2   
    19    10    20 1   
    20    11    12 1   
    21    11    18 1   
    22    12    13 ar  
    23    12    17 ar  
    24    13    14 ar  
    25    13    36 1   
    26    14    15 ar  
    27    14    37 1   
    28    15    16 ar  
    29    15    38 1   
    30    16    17 ar  
    31    16    39 1   
    32    17    40 1   
    33    18    19 2   
    34    19    20 1   
    35    19    41 1   
    36    20    21 1   
    37    21    22 1   
    38    21    42 1   
    39    21    43 1   
    40    22    23 1   
    41    22    44 1   
    42    22    45 1   
    43    23    24 1   
    44    23    26 1   
    45    23    46 1   
    46    24    25 1   
    47    24    28 1   
    48    25    47 1   
    49    25    48 1   
    50    25    49 1   
    51    26    27 1   
    52    26    50 1   
    53    26    51 1   
    54    27    28 1   
    55    27    52 1   
    56    27    53 1   
    57    28    54 1   
    58    28    55 1   
@<TRIPOS>SUBSTRUCTURE
     1 VMC         1 TEMP              0 ****  ****    0 ROOT
