@<TRIPOS>MOLECULE
VMC
   55    58     1     0     0
SMALL
No Charge or Current Charge


@<TRIPOS>ATOM
      1 O26          0.4540     4.5980    -0.5280 oh         1 VMC      -0.513100
      2 C22          0.4910     3.2430    -0.3270 ca         1 VMC       0.115100
      3 C21         -0.3910     2.4220    -1.0500 ca         1 VMC      -0.183000
      4 C20         -0.3690     1.0300    -0.8650 ca         1 VMC      -0.087000
      5 C23          1.4020     2.6690     0.5930 ca         1 VMC       0.106100
      6 O27          2.2640     3.5020     1.2900 os         1 VMC      -0.322100
      7 C28          3.2440     2.9980     2.2160 c3         1 VMC       0.142900
      8 C24          1.4110     1.2670     0.7750 ca         1 VMC      -0.145000
      9 C19          0.5320     0.4470     0.0420 ca         1 VMC      -0.021000
     10 C9           0.5420    -0.9990     0.2450 cc         1 VMC      -0.127000
     11 C10          1.6390    -1.8290     0.1010 cd         1 VMC       0.299500
     12 C13          2.9920    -1.5500    -0.4590 ca         1 VMC      -0.103500
     13 C18          3.2690    -0.4090    -1.2510 ca         1 VMC      -0.094000
     14 C17          4.5520    -0.1920    -1.7840 ca         1 VMC      -0.119500
     15 C16          5.5790    -1.1190    -1.5550 ca         1 VMC      -0.113000
     16 C15          5.3160    -2.2730    -0.8040 ca         1 VMC      -0.119500
     17 C14          4.0330    -2.4910    -0.2710 ca         1 VMC      -0.094000
     18 N11          1.2820    -3.1130     0.4830 nd         1 VMC      -0.670000
     19 C12          0.0110    -3.0520     0.8580 cc         1 VMC       0.389400
     20 N8          -0.4880    -1.7750     0.7270 na         1 VMC      -0.155500
     21 C7          -1.8400    -1.3300     1.1080 c3         1 VMC       0.067600
     22 C6          -2.9170    -1.7070     0.0700 c3         1 VMC      -0.086400
     23 C3          -4.3490    -1.2660     0.4760 c5         1 VMC       0.165500
     24 N2          -4.5000     0.1920     0.7310 n3         1 VMC      -0.719600
     25 C25         -5.6760     0.5770     1.5510 c3         1 VMC       0.152100
     26 C4          -5.4030    -1.4900    -0.6490 c5         1 VMC      -0.098400
     27 C5          -5.3700    -0.1560    -1.4650 c5         1 VMC      -0.112400
     28 C1          -4.4660     0.7960    -0.6250 c5         1 VMC       0.152800
     29 H1          -0.2370     4.7950    -1.1960 ho         1 VMC       0.458000
     30 H2          -1.0920     2.8550    -1.7600 ha         1 VMC       0.115000
     31 H3          -1.0460     0.4000    -1.4370 ha         1 VMC       0.128000
     32 H4           3.8230     3.8250     2.6440 h1         1 VMC       0.041700
     33 H5           2.7600     2.4590     3.0410 h1         1 VMC       0.041700
     34 H6           3.9430     2.3190     1.7120 h1         1 VMC       0.041700
     35 H7           2.0920     0.7960     1.4770 ha         1 VMC       0.132000
     36 H8           2.4950     0.3100    -1.4930 ha         1 VMC       0.122500
     37 H9           4.7450     0.6930    -2.3870 ha         1 VMC       0.110000
     38 H10          6.5700    -0.9510    -1.9700 ha         1 VMC       0.109000
     39 H11          6.1050    -3.0020    -0.6340 ha         1 VMC       0.110000
     40 H12          3.8600    -3.3940     0.3100 ha         1 VMC       0.122500
     41 H13         -0.5900    -3.8740     1.2280 h5         1 VMC       0.053100
     42 H14         -2.0960    -1.7810     2.0750 h1         1 VMC       0.070700
     43 H15         -1.8310    -0.2420     1.2450 h1         1 VMC       0.070700
     44 H16         -2.6380    -1.2890    -0.9040 hc         1 VMC       0.054700
     45 H17         -2.9070    -2.7960    -0.0610 hc         1 VMC       0.054700
     46 H18         -4.6150    -1.8480     1.3700 h1         1 VMC       0.049700
     47 H20         -5.6420     0.0800     2.5290 h1         1 VMC       0.032033
     48 H21         -5.6820     1.6610     1.7230 h1         1 VMC       0.032033
     49 H22         -6.6210     0.3070     1.0620 h1         1 VMC       0.032033
     50 H23         -5.1730    -2.3640    -1.2680 hc         1 VMC       0.050700
     51 H24         -6.3980    -1.6630    -0.2230 hc         1 VMC       0.050700
     52 H25         -4.9630    -0.2990    -2.4730 hc         1 VMC       0.051200
     53 H26         -6.3790     0.2550    -1.5830 hc         1 VMC       0.051200
     54 H27         -4.8320     1.8320    -0.6360 h1         1 VMC       0.053700
     55 H28         -3.4430     0.8140    -1.0240 h1         1 VMC       0.053700
@<TRIPOS>BOND
     1     1     2 1   
     2     1    29 1   
     3     2     3 ar  
     4     2     5 ar  
     5     3     4 ar  
     6     3    30 1   
     7     4     9 ar  
     8     4    31 1   
     9     5     6 1   
    10     5     8 ar  
    11     6     7 1   
    12     7    32 1   
    13     7    33 1   
    14     7    34 1   
    15     8     9 ar  
    16     8    35 1   
    17     9    10 1   
    18    10    11 2   
    19    10    20 1   
    20    11    12 1   
    21    11    18 1   
    22    12    13 ar  
    23    12    17 ar  
    24    13    14 ar  
    25    13    36 1   
    26    14    15 ar  
    27    14    37 1   
    28    15    16 ar  
    29    15    38 1   
    30    16    17 ar  
    31    16    39 1   
    32    17    40 1   
    33    18    19 2   
    34    19    20 1   
    35    19    41 1   
    36    20    21 1   
    37    21    22 1   
    38    21    42 1   
    39    21    43 1   
    40    22    23 1   
    41    22    44 1   
    42    22    45 1   
    43    23    24 1   
    44    23    26 1   
    45    23    46 1   
    46    24    25 1   
    47    24    28 1   
    48    25    47 1   
    49    25    48 1   
    50    25    49 1   
    51    26    27 1   
    52    26    50 1   
    53    26    51 1   
    54    27    28 1   
    55    27    52 1   
    56    27    53 1   
    57    28    54 1   
    58    28    55 1   
@<TRIPOS>SUBSTRUCTURE
     1 VMC         1 TEMP              0 ****  ****    0 ROOT
