@<TRIPOS>MOLECULE
VMD
   64    66     1     0     0
SMALL
abcg2


@<TRIPOS>ATOM
      1 O1           3.3200     9.9700     9.6430 oh         1 VMD      -0.695000
      2 C13         -3.7720     4.4210    16.3100 ca         1 VMD       0.390000
      3 C14         -4.7250     4.5270    17.3410 ca         1 VMD      -0.223500
      4 C15         -5.5070     3.4520    17.7000 ca         1 VMD       0.045000
      5 C16         -5.3570     2.2330    17.0430 ca         1 VMD      -0.350500
      6 C21         -4.4070     2.1020    16.0360 ca         1 VMD       0.045000
      7 C22         -3.6200     3.1750    15.6730 ca         1 VMD      -0.223500
      8 C7          -1.7960    10.2800    13.5710 c3         1 VMD       0.081600
      9 C9          -2.3790     7.9440    14.2800 cc         1 VMD      -0.205000
     10 C10         -1.5870     6.8730    14.6100 cd         1 VMD       0.168300
     11 C11         -1.9820     5.4850    14.9800 c3         1 VMD       0.205500
     12 N4          -0.0030    10.4990    11.1740 n7         1 VMD      -0.860400
     13 C2           2.3810    10.6410    10.4540 c3         1 VMD       0.154300
     14 C3           1.0250     9.9420    10.3210 c3         1 VMD       0.119800
     15 C5          -1.2420     9.7480    11.1350 c3         1 VMD       0.158800
     16 C6          -2.2570    10.3080    12.1200 c3         1 VMD      -0.094400
     17 N8          -1.5060     8.9310    14.0260 na         1 VMD       0.131800
     18 N12         -3.0490     5.5110    15.9520 nu         1 VMD      -0.966200
     19 S17         -6.3350     0.8490    17.4910 sy         1 VMD       1.135600
     20 O18         -7.1080     1.1980    18.6770 o          1 VMD      -0.551500
     21 N19         -7.2820     0.6640    16.1410 n8         1 VMD      -0.998100
     22 O20         -5.5110    -0.3520    17.5450 o          1 VMD      -0.551500
     23 N23         -0.3010     7.2730    14.5330 nd         1 VMD      -0.356000
     24 N24         -0.2630     8.5110    14.1740 nc         1 VMD      -0.183800
     25 C25          1.7540    12.9550    12.4390 c3         1 VMD      -0.082100
     26 C26          2.3910    13.1880    11.0890 c5         1 VMD       0.142300
     27 C27          2.3180    12.1190     9.9860 c5         1 VMD       0.153300
     28 O28          3.4240    12.4800     9.1900 os         1 VMD      -0.456000
     29 C29          4.3690    13.2020     9.9680 c5         1 VMD       0.392000
     30 C30          4.5780    14.5690     9.3270 c3         1 VMD      -0.104600
     31 C31          5.6750    12.4370    10.0890 c3         1 VMD      -0.104600
     32 O32          3.7910    13.3210    11.2450 os         1 VMD      -0.466000
     33 H1           3.4030     9.0720     9.9800 ho         1 VMD       0.500000
     34 H2          -4.8510     5.4730    17.8540 ha         1 VMD       0.117000
     35 H3          -6.2340     3.5670    18.4930 ha         1 VMD       0.133000
     36 H4          -4.2690     1.1570    15.5270 ha         1 VMD       0.133000
     37 H5          -2.8800     3.0350    14.8970 ha         1 VMD       0.117000
     38 H6          -0.8860    10.8590    13.7060 h1         1 VMD       0.078700
     39 H7          -2.5620    10.6980    14.2230 h1         1 VMD       0.078700
     40 H8          -3.4470     8.0720    14.2160 h4         1 VMD       0.171000
     41 H9          -2.3260     4.9580    14.0860 h1         1 VMD       0.062700
     42 H10         -1.0980     4.9460    15.3420 h1         1 VMD       0.062700
     43 H11         -0.2060    11.4490    10.8870 hn         1 VMD       0.401000
     44 H13          2.6900    10.5930    11.5070 h1         1 VMD       0.057700
     45 H14          1.1590     8.8950    10.6120 h1         1 VMD       0.040200
     46 H15          0.7440     9.9370     9.2550 h1         1 VMD       0.040200
     47 H16         -1.6970     9.7270    10.1340 h1         1 VMD       0.039700
     48 H17         -1.0200     8.7050    11.3820 h1         1 VMD       0.039700
     49 H18         -2.4840    11.3480    11.8680 hc         1 VMD       0.053200
     50 H19         -3.1970     9.7590    12.0200 hc         1 VMD       0.053200
     51 H20         -3.0520     6.2900    16.5910 hn         1 VMD       0.490000
     52 H21         -7.7490    -0.2390    16.1410 hn         1 VMD       0.467000
     53 H22         -7.9670     1.4070    16.0430 hn         1 VMD       0.467000
     54 H23          0.6720    12.8940    12.3480 hc         1 VMD       0.048700
     55 H24          2.1090    12.0470    12.9250 hc         1 VMD       0.048700
     56 H25          1.9770    13.7990    13.0930 hc         1 VMD       0.048700
     57 H26          1.9640    14.1140    10.6730 h1         1 VMD       0.041700
     58 H27          1.4200    12.2620     9.3730 h1         1 VMD       0.065700
     59 H28          3.6500    15.1420     9.3010 hc         1 VMD       0.049033
     60 H29          5.3210    15.1430     9.8810 hc         1 VMD       0.049033
     61 H30          4.9370    14.4610     8.3030 hc         1 VMD       0.049033
     62 H31          5.5130    11.4470    10.5130 hc         1 VMD       0.049033
     63 H32          6.1370    12.3200     9.1090 hc         1 VMD       0.049033
     64 H33          6.3770    12.9790    10.7240 hc         1 VMD       0.049033
@<TRIPOS>BOND
     1     1    13 1   
     2     1    33 1   
     3     2     3 ar  
     4     2     7 ar  
     5     2    18 1   
     6     3     4 ar  
     7     3    34 1   
     8     4     5 ar  
     9     4    35 1   
    10     5     6 ar  
    11     5    19 1   
    12     6     7 ar  
    13     6    36 1   
    14     7    37 1   
    15     8    16 1   
    16     8    17 1   
    17     8    38 1   
    18     8    39 1   
    19     9    10 2   
    20     9    17 1   
    21     9    40 1   
    22    10    11 1   
    23    10    23 1   
    24    11    18 1   
    25    11    41 1   
    26    11    42 1   
    27    12    14 1   
    28    12    15 1   
    29    12    43 1   
    30    13    14 1   
    31    13    27 1   
    32    13    44 1   
    33    14    45 1   
    34    14    46 1   
    35    15    16 1   
    36    15    47 1   
    37    15    48 1   
    38    16    49 1   
    39    16    50 1   
    40    17    24 1   
    41    18    51 1   
    42    19    20 2   
    43    19    21 1   
    44    19    22 2   
    45    21    52 1   
    46    21    53 1   
    47    23    24 2   
    48    25    26 1   
    49    25    54 1   
    50    25    55 1   
    51    25    56 1   
    52    26    27 1   
    53    26    32 1   
    54    26    57 1   
    55    27    28 1   
    56    27    58 1   
    57    28    29 1   
    58    29    30 1   
    59    29    31 1   
    60    29    32 1   
    61    30    59 1   
    62    30    60 1   
    63    30    61 1   
    64    31    62 1   
    65    31    63 1   
    66    31    64 1   
@<TRIPOS>SUBSTRUCTURE
     1 VMD         1 TEMP              0 ****  ****    0 ROOT
