@<TRIPOS>MOLECULE
VMD
   64    66     1     0     0
SMALL
No Charge or Current Charge


@<TRIPOS>ATOM
      1 O1           3.3610    10.1620     9.1630 oh         1 VMD      -0.695000
      2 C13         -3.8460     4.2240    16.1520 ca         1 VMD       0.390000
      3 C14         -4.3570     4.3400    17.4510 ca         1 VMD      -0.223500
      4 C15         -4.9830     3.2460    18.0700 ca         1 VMD       0.045000
      5 C16         -5.1010     2.0250    17.3780 ca         1 VMD      -0.350500
      6 C21         -4.5890     1.9060    16.0710 ca         1 VMD       0.045000
      7 C22         -3.9650     3.0080    15.4630 ca         1 VMD      -0.223500
      8 C7          -1.8540    10.2260    13.1130 c3         1 VMD       0.081600
      9 C9          -2.6010     7.8370    13.6060 cc         1 VMD      -0.205000
     10 C10         -1.8970     6.7570    14.0590 cd         1 VMD       0.168300
     11 C11         -2.4130     5.3570    14.3360 c3         1 VMD       0.205500
     12 N4          -0.0440    10.6150    10.6840 n7         1 VMD      -0.860400
     13 C2           2.4320    10.8250    10.0540 c3         1 VMD       0.154300
     14 C3           1.0400    10.1590     9.7920 c3         1 VMD       0.119800
     15 C5          -1.2960     9.8440    10.6070 c3         1 VMD       0.158800
     16 C6          -2.3100    10.3750    11.6400 c3         1 VMD      -0.094400
     17 N8          -1.6550     8.8300    13.5380 na         1 VMD       0.131800
     18 N12         -3.2320     5.3310    15.5710 nu         1 VMD      -0.966200
     19 S17         -5.8930     0.6230    18.1520 sy         1 VMD       1.135600
     20 O18         -6.0020     0.8410    19.5920 o          1 VMD      -0.551500
     21 N19         -7.4260     0.7880    17.6140 n8         1 VMD      -0.998100
     22 O20         -5.4130    -0.6290    17.5670 o          1 VMD      -0.551500
     23 N23         -0.5790     7.1230    14.2540 nd         1 VMD      -0.356000
     24 N24         -0.4310     8.3820    13.9380 nc         1 VMD      -0.183800
     25 C25          1.2510    12.9770    12.1780 c3         1 VMD      -0.082100
     26 C26          2.3090    13.2990    11.1040 c5         1 VMD       0.142300
     27 C27          2.4680    12.3920     9.8350 c5         1 VMD       0.153300
     28 O28          3.7960    12.8220     9.4180 os         1 VMD      -0.456000
     29 C29          4.5500    13.2170    10.5870 c5         1 VMD       0.392000
     30 C30          5.0890    14.6470    10.3730 c3         1 VMD      -0.104600
     31 C31          5.6830    12.2100    10.8680 c3         1 VMD      -0.104600
     32 O32          3.6200    13.2030    11.6830 os         1 VMD      -0.466000
     33 H1           3.4740     9.2410     9.4900 ho         1 VMD       0.500000
     34 H2          -4.2690     5.2790    17.9880 ha         1 VMD       0.117000
     35 H3          -5.3720     3.3550    19.0820 ha         1 VMD       0.133000
     36 H4          -4.6750     0.9680    15.5230 ha         1 VMD       0.133000
     37 H5          -3.5780     2.9040    14.4550 ha         1 VMD       0.117000
     38 H6          -0.9190    10.7810    13.2650 h1         1 VMD       0.078700
     39 H7          -2.6100    10.6730    13.7690 h1         1 VMD       0.078700
     40 H8          -3.6410     7.9670    13.3430 h4         1 VMD       0.171000
     41 H9          -3.0100     5.0300    13.4730 h1         1 VMD       0.062700
     42 H10         -1.5580     4.6720    14.4300 h1         1 VMD       0.062700
     43 H11         -0.2600    11.5940    10.4650 hn         1 VMD       0.401000
     44 H13          2.7190    10.6240    11.0950 h1         1 VMD       0.057700
     45 H14          1.1630     9.0740     9.9110 h1         1 VMD       0.040200
     46 H15          0.7560    10.3360     8.7450 h1         1 VMD       0.040200
     47 H16         -1.7340     9.9280     9.6020 h1         1 VMD       0.039700
     48 H17         -1.1090     8.7790    10.7990 h1         1 VMD       0.039700
     49 H18         -2.5120    11.4340    11.4350 hc         1 VMD       0.053200
     50 H19         -3.2610     9.8470    11.5040 hc         1 VMD       0.053200
     51 H20         -3.1940     6.1640    16.1610 hn         1 VMD       0.490000
     52 H21         -7.9400     0.7730    18.4920 hn         1 VMD       0.467000
     53 H22         -7.4480     1.7640    17.3330 hn         1 VMD       0.467000
     54 H23          0.2360    13.0810    11.7780 hc         1 VMD       0.048700
     55 H24          1.3730    11.9660    12.5810 hc         1 VMD       0.048700
     56 H25          1.3360    13.6760    13.0190 hc         1 VMD       0.048700
     57 H26          2.1500    14.3390    10.7890 h1         1 VMD       0.041700
     58 H27          1.7460    12.6590     9.0510 h1         1 VMD       0.065700
     59 H28          4.2800    15.3480    10.1380 hc         1 VMD       0.049033
     60 H29          5.5990    15.0120    11.2720 hc         1 VMD       0.049033
     61 H30          5.8070    14.6760     9.5460 hc         1 VMD       0.049033
     62 H31          5.2850    11.2130    11.0860 hc         1 VMD       0.049033
     63 H32          6.3540    12.1230    10.0050 hc         1 VMD       0.049033
     64 H33          6.2840    12.5250    11.7290 hc         1 VMD       0.049033
@<TRIPOS>BOND
     1     1    13 1   
     2     1    33 1   
     3     2     3 ar  
     4     2     7 ar  
     5     2    18 1   
     6     3     4 ar  
     7     3    34 1   
     8     4     5 ar  
     9     4    35 1   
    10     5     6 ar  
    11     5    19 1   
    12     6     7 ar  
    13     6    36 1   
    14     7    37 1   
    15     8    16 1   
    16     8    17 1   
    17     8    38 1   
    18     8    39 1   
    19     9    10 2   
    20     9    17 1   
    21     9    40 1   
    22    10    11 1   
    23    10    23 1   
    24    11    18 1   
    25    11    41 1   
    26    11    42 1   
    27    12    14 1   
    28    12    15 1   
    29    12    43 1   
    30    13    14 1   
    31    13    27 1   
    32    13    44 1   
    33    14    45 1   
    34    14    46 1   
    35    15    16 1   
    36    15    47 1   
    37    15    48 1   
    38    16    49 1   
    39    16    50 1   
    40    17    24 1   
    41    18    51 1   
    42    19    20 2   
    43    19    21 1   
    44    19    22 2   
    45    21    52 1   
    46    21    53 1   
    47    23    24 2   
    48    25    26 1   
    49    25    54 1   
    50    25    55 1   
    51    25    56 1   
    52    26    27 1   
    53    26    32 1   
    54    26    57 1   
    55    27    28 1   
    56    27    58 1   
    57    28    29 1   
    58    29    30 1   
    59    29    31 1   
    60    29    32 1   
    61    30    59 1   
    62    30    60 1   
    63    30    61 1   
    64    31    62 1   
    65    31    63 1   
    66    31    64 1   
@<TRIPOS>SUBSTRUCTURE
     1 VMD         1 TEMP              0 ****  ****    0 ROOT
