@<TRIPOS>MOLECULE
VME
   22    21     1     0     0
SMALL
No Charge or Current Charge


@<TRIPOS>ATOM
      1 N            1.1060     1.9320    -0.2490 n8         1 VME      -0.991200
      2 CA           0.5740     0.5220    -0.3030 c3         1 VME       0.116500
      3 C           -0.9090     0.3730     0.1980 c          1 VME       0.546100
      4 O           -1.3980     1.0620     1.0870 o          1 VME      -0.496000
      5 CB           1.5470    -0.4680     0.4210 c3         1 VME      -0.050700
      6 CG1          1.0100    -1.9220     0.4660 c3         1 VME      -0.087600
      7 CG2          2.9710    -0.4550    -0.1960 c3         1 VME      -0.087600
      8 CM          -3.0270    -0.6810    -0.2820 c3         1 VME       0.148900
      9 O2          -1.6340    -0.4860    -0.5910 os         1 VME      -0.438100
     10 HN1          0.4830     2.5490    -0.7860 hn         1 VME       0.410500
     11 HN2          1.0050     2.2850     0.7110 hn         1 VME       0.410500
     12 HA           0.5510     0.2270    -1.3620 h1         1 VME       0.084700
     13 HB           1.6420    -0.1350     1.4620 hc         1 VME       0.057700
     14 HG11         1.7380    -2.5900     0.9430 hc         1 VME       0.038367
     15 HG12         0.0820    -1.9880     1.0450 hc         1 VME       0.038367
     16 HG13         0.8160    -2.2990    -0.5460 hc         1 VME       0.038367
     17 HG21         3.4270     0.5390    -0.1290 hc         1 VME       0.038367
     18 HG22         3.6290    -1.1540     0.3330 hc         1 VME       0.038367
     19 HG23         2.9400    -0.7490    -1.2530 hc         1 VME       0.038367
     20 HMC1        -3.1500    -1.0770     0.7350 h1         1 VME       0.048367
     21 HMC2        -3.5800     0.2640    -0.3570 h1         1 VME       0.048367
     22 HMC3        -3.4770    -1.3950    -0.9820 h1         1 VME       0.048367
@<TRIPOS>BOND
     1     1     2 1   
     2     1    10 1   
     3     1    11 1   
     4     2     3 1   
     5     2     5 1   
     6     2    12 1   
     7     3     4 2   
     8     3     9 1   
     9     5     6 1   
    10     5     7 1   
    11     5    13 1   
    12     6    14 1   
    13     6    15 1   
    14     6    16 1   
    15     7    17 1   
    16     7    18 1   
    17     7    19 1   
    18     8     9 1   
    19     8    20 1   
    20     8    21 1   
    21     8    22 1   
@<TRIPOS>SUBSTRUCTURE
     1 VME         1 TEMP              0 ****  ****    0 ROOT
