@<TRIPOS>MOLECULE
VME
   22    21     1     0     0
SMALL
abcg2


@<TRIPOS>ATOM
      1 N            1.0480     1.8500    -0.2750 n8         1 VME      -0.991200
      2 CA           0.5740     0.4830    -0.3600 c3         1 VME       0.116500
      3 C           -0.8510     0.3390     0.1530 c          1 VME       0.546100
      4 O           -1.2420     0.8220     1.1890 o          1 VME      -0.496000
      5 CB           1.5040    -0.4590     0.4280 c3         1 VME      -0.050700
      6 CG1          0.9810    -1.8940     0.4570 c3         1 VME      -0.087600
      7 CG2          2.9110    -0.4200    -0.1570 c3         1 VME      -0.087600
      8 CM          -2.9680    -0.6130    -0.2490 c3         1 VME       0.148900
      9 O2          -1.6190    -0.3760    -0.6550 os         1 VME      -0.438100
     10 HN1          0.4990     2.4540    -0.8740 hn         1 VME       0.410500
     11 HN2          0.9320     2.1980     0.6700 hn         1 VME       0.410500
     12 HA           0.5990     0.1790    -1.4110 h1         1 VME       0.084700
     13 HB           1.5460    -0.0910     1.4600 hc         1 VME       0.057700
     14 HG11         1.6990    -2.5460     0.9570 hc         1 VME       0.038367
     15 HG12         0.0380    -1.9900     0.9980 hc         1 VME       0.038367
     16 HG13         0.8310    -2.2810    -0.5530 hc         1 VME       0.038367
     17 HG21         3.3050     0.5940    -0.1790 hc         1 VME       0.038367
     18 HG22         3.5900    -1.0360     0.4340 hc         1 VME       0.038367
     19 HG23         2.9170    -0.8050    -1.1790 hc         1 VME       0.038367
     20 HMC1        -3.0120    -1.1370     0.7060 h1         1 VME       0.048367
     21 HMC2        -3.5290     0.3190    -0.1730 h1         1 VME       0.048367
     22 HMC3        -3.4080    -1.2360    -1.0220 h1         1 VME       0.048367
@<TRIPOS>BOND
     1     1     2 1   
     2     1    10 1   
     3     1    11 1   
     4     2     3 1   
     5     2     5 1   
     6     2    12 1   
     7     3     4 2   
     8     3     9 1   
     9     5     6 1   
    10     5     7 1   
    11     5    13 1   
    12     6    14 1   
    13     6    15 1   
    14     6    16 1   
    15     7    17 1   
    16     7    18 1   
    17     7    19 1   
    18     8     9 1   
    19     8    20 1   
    20     8    21 1   
    21     8    22 1   
@<TRIPOS>SUBSTRUCTURE
     1 VME         1 TEMP              0 ****  ****    0 ROOT
