@<TRIPOS>MOLECULE
VMF
   24    24     1     0     0
SMALL
abcg2


@<TRIPOS>ATOM
      1 CAA        -26.7050    18.4390    -4.2010 c5         1 VMF       0.152500
      2 CAB        -27.7500    19.4340    -3.7100 c5         1 VMF       0.141800
      3 CAC        -25.3460    19.0420    -4.4850 c3         1 VMF       0.161600
      4 CAD        -28.7570    18.4940    -3.0560 c5         1 VMF       0.141800
      5 CAE        -27.8440    17.5020    -2.3230 c5         1 VMF       0.152500
      6 CAF        -28.5020    16.1560    -2.0920 c3         1 VMF       0.161600
      7 NAG        -26.6510    17.4050    -3.1590 n7         1 VMF      -0.853400
      8 OAH        -27.1780    20.3090    -2.7670 oh         1 VMF      -0.657000
      9 OAI        -29.6520    19.2060    -2.2480 oh         1 VMF      -0.657000
     10 OAJ        -24.5420    18.0370    -5.0660 oh         1 VMF      -0.673000
     11 OAK        -29.6540    16.3750    -1.3040 oh         1 VMF      -0.673000
     12 H1         -27.0860    18.0290    -5.1480 h1         1 VMF       0.065200
     13 H2         -28.1880    19.9900    -4.5500 h1         1 VMF       0.042700
     14 H3         -24.9090    19.4150    -3.5530 h1         1 VMF       0.032950
     15 H4         -25.4660    19.9000    -5.1610 h1         1 VMF       0.032950
     16 H5         -29.2830    17.9540    -3.8600 h1         1 VMF       0.042700
     17 H6         -27.5830    17.9280    -1.3440 h1         1 VMF       0.065200
     18 H7         -28.7570    15.7130    -3.0640 h1         1 VMF       0.032950
     19 H8         -27.8000    15.4720    -1.5960 h1         1 VMF       0.032950
     20 H9         -26.5550    16.4870    -3.5700 hn         1 VMF       0.422000
     21 H11        -27.8970    20.7110    -2.2660 ho         1 VMF       0.468000
     22 H12        -30.1290    18.5650    -1.7080 ho         1 VMF       0.468000
     23 H13        -23.6510    18.3850    -5.1620 ho         1 VMF       0.448000
     24 H14        -30.1780    15.5700    -1.2870 ho         1 VMF       0.448000
@<TRIPOS>BOND
     1     1     2 1   
     2     1     3 1   
     3     1     7 1   
     4     1    12 1   
     5     2     4 1   
     6     2     8 1   
     7     2    13 1   
     8     3    10 1   
     9     3    14 1   
    10     3    15 1   
    11     4     5 1   
    12     4     9 1   
    13     4    16 1   
    14     5     6 1   
    15     5     7 1   
    16     5    17 1   
    17     6    11 1   
    18     6    18 1   
    19     6    19 1   
    20     7    20 1   
    21     8    21 1   
    22     9    22 1   
    23    10    23 1   
    24    11    24 1   
@<TRIPOS>SUBSTRUCTURE
     1 VMF         1 TEMP              0 ****  ****    0 ROOT
