@<TRIPOS>MOLECULE
VMF
   24    24     1     0     0
SMALL
No Charge or Current Charge


@<TRIPOS>ATOM
      1 CAA        -26.6630    18.4580    -4.2210 c5         1 VMF       0.152500
      2 CAB        -27.7120    19.5020    -3.6910 c5         1 VMF       0.141800
      3 CAC        -25.2540    19.0520    -4.5250 c3         1 VMF       0.161600
      4 CAD        -28.7830    18.5000    -3.1690 c5         1 VMF       0.141800
      5 CAE        -27.8730    17.5020    -2.3780 c5         1 VMF       0.152500
      6 CAF        -28.5850    16.1690    -2.0050 c3         1 VMF       0.161600
      7 NAG        -26.6490    17.3270    -3.2240 n7         1 VMF      -0.853400
      8 OAH        -27.2180    20.3610    -2.6480 oh         1 VMF      -0.657000
      9 OAI        -29.7790    19.1190    -2.3430 oh         1 VMF      -0.657000
     10 OAJ        -24.4110    18.0910    -5.1920 oh         1 VMF      -0.673000
     11 OAK        -29.7770    16.4270    -1.2380 oh         1 VMF      -0.673000
     12 H1         -27.0460    18.0730    -5.1780 h1         1 VMF       0.065200
     13 H2         -28.1090    20.1080    -4.5170 h1         1 VMF       0.042700
     14 H3         -24.7920    19.3770    -3.5820 h1         1 VMF       0.032950
     15 H4         -25.3790    19.9420    -5.1570 h1         1 VMF       0.032950
     16 H5         -29.2640    17.9860    -4.0130 h1         1 VMF       0.042700
     17 H6         -27.5720    17.9730    -1.4310 h1         1 VMF       0.065200
     18 H7         -28.8380    15.6270    -2.9260 h1         1 VMF       0.032950
     19 H8         -27.8890    15.5450    -1.4280 h1         1 VMF       0.032950
     20 H9         -26.6840    16.4390    -3.7400 hn         1 VMF       0.422000
     21 H11        -27.9950    20.5160    -2.0640 ho         1 VMF       0.468000
     22 H12        -30.1390    18.3800    -1.7920 ho         1 VMF       0.468000
     23 H13        -23.5170    18.4940    -5.2570 ho         1 VMF       0.448000
     24 H14        -30.1340    15.5510    -0.9630 ho         1 VMF       0.448000
@<TRIPOS>BOND
     1     1     2 1   
     2     1     3 1   
     3     1     7 1   
     4     1    12 1   
     5     2     4 1   
     6     2     8 1   
     7     2    13 1   
     8     3    10 1   
     9     3    14 1   
    10     3    15 1   
    11     4     5 1   
    12     4     9 1   
    13     4    16 1   
    14     5     6 1   
    15     5     7 1   
    16     5    17 1   
    17     6    11 1   
    18     6    18 1   
    19     6    19 1   
    20     7    20 1   
    21     8    21 1   
    22     9    22 1   
    23    10    23 1   
    24    11    24 1   
@<TRIPOS>SUBSTRUCTURE
     1 VMF         1 TEMP              0 ****  ****    0 ROOT
