@<TRIPOS>MOLECULE
VMG
   51    54     1     0     0
SMALL
No Charge or Current Charge


@<TRIPOS>ATOM
      1 O11         37.0340   -15.9980    17.9900 o          1 VMG      -0.508000
      2 C1          37.1530   -16.3090    16.8120 c          1 VMG       0.624600
      3 C6          36.0710   -16.8520    16.0290 cc         1 VMG      -0.338600
      4 C7          34.7610   -17.1350    16.4290 cc         1 VMG       0.323900
      5 N8          34.0030   -17.6180    15.4550 nd         1 VMG      -0.517800
      6 N9          34.8850   -17.6420    14.3710 na         1 VMG       0.131800
      7 C10         34.4670   -18.1150    13.0460 c3         1 VMG       0.077900
      8 C5          36.1490   -17.1660    14.7320 cd         1 VMG       0.153400
      9 N4          37.3140   -17.0190    14.0060 nd         1 VMG      -0.673100
     10 C3          38.3410   -16.5360    14.7160 cc         1 VMG       0.554800
     11 S18         39.8520   -16.5230    13.7920 ss         1 VMG      -0.225200
     12 C19         39.7290   -18.0030    12.6810 c3         1 VMG       0.125600
     13 C20         40.8580   -17.9620    11.6510 ca         1 VMG      -0.086300
     14 C25         42.2100   -18.0090    12.0550 ca         1 VMG      -0.094000
     15 C24         43.2400   -17.9690    11.1000 ca         1 VMG      -0.110000
     16 C23         42.9290   -17.8810     9.7330 ca         1 VMG      -0.101000
     17 C22         41.5870   -17.8310     9.3220 ca         1 VMG      -0.110000
     18 C21         40.5550   -17.8700    10.2770 ca         1 VMG      -0.094000
     19 C26         39.7550   -19.3040    13.5150 c3         1 VMG      -0.081100
     20 N2          38.3300   -16.1500    16.0700 n          1 VMG      -0.255500
     21 C12         39.4760   -15.5000    16.6650 ca         1 VMG       0.010600
     22 C17         40.0240   -16.0010    17.8640 ca         1 VMG      -0.080500
     23 C16         41.1630   -15.4060    18.4350 ca         1 VMG      -0.098000
     24 C15         41.7770   -14.3030    17.8140 ca         1 VMG      -0.056300
     25 C14         41.2400   -13.8050    16.6120 ca         1 VMG      -0.098000
     26 C13         40.1030   -14.4000    16.0410 ca         1 VMG      -0.080500
     27 C27         43.0170   -13.6580    18.4270 c3         1 VMG      -0.035100
     28 C28         42.7280   -12.3040    19.1110 c3         1 VMG       0.166600
     29 O28         41.8910   -12.4910    20.2600 oh         1 VMG      -0.657000
     30 H1          34.3290   -17.0010    17.4130 h4         1 VMG       0.052100
     31 H2          33.6090   -18.7900    13.1450 h1         1 VMG       0.059367
     32 H3          34.1860   -17.2560    12.4260 h1         1 VMG       0.059367
     33 H4          35.2970   -18.6510    12.5710 h1         1 VMG       0.059367
     34 H5          38.7750   -17.9550    12.1420 h1         1 VMG       0.095700
     35 H6          42.4650   -18.0720    13.1110 ha         1 VMG       0.116000
     36 H7          44.2790   -18.0050    11.4190 ha         1 VMG       0.115000
     37 H8          43.7270   -17.8500     8.9930 ha         1 VMG       0.115000
     38 H9          41.3450   -17.7610     8.2640 ha         1 VMG       0.115000
     39 H10         39.5200   -17.8300     9.9450 ha         1 VMG       0.116000
     40 H11         38.8920   -19.3570    14.1890 hc         1 VMG       0.048367
     41 H12         39.7200   -20.1790    12.8550 hc         1 VMG       0.048367
     42 H13         40.6650   -19.3670    14.1210 hc         1 VMG       0.048367
     43 H14         39.5750   -16.8620    18.3520 ha         1 VMG       0.125000
     44 H15         41.5680   -15.8060    19.3620 ha         1 VMG       0.118000
     45 H16         41.7050   -12.9540    16.1190 ha         1 VMG       0.118000
     46 H17         39.6970   -13.9880    15.1200 ha         1 VMG       0.125000
     47 H18         43.4870   -14.3320    19.1530 hc         1 VMG       0.055200
     48 H19         43.6800   -11.8480    19.4120 h1         1 VMG       0.019700
     49 H20         41.7270   -11.6000    20.6410 ho         1 VMG       0.444000
     50 H21         43.7660   -13.4930    17.6430 hc         1 VMG       0.055200
     51 H22         42.2470   -11.6290    18.3920 h1         1 VMG       0.019700
@<TRIPOS>BOND
     1     1     2 2   
     2     2     3 1   
     3     2    20 1   
     4     3     4 1   
     5     3     8 2   
     6     4     5 2   
     7     4    30 1   
     8     5     6 1   
     9     6     7 1   
    10     6     8 1   
    11     7    31 1   
    12     7    32 1   
    13     7    33 1   
    14     8     9 1   
    15     9    10 2   
    16    10    11 1   
    17    10    20 1   
    18    11    12 1   
    19    12    13 1   
    20    12    19 1   
    21    12    34 1   
    22    13    14 ar  
    23    13    18 ar  
    24    14    15 ar  
    25    14    35 1   
    26    15    16 ar  
    27    15    36 1   
    28    16    17 ar  
    29    16    37 1   
    30    17    18 ar  
    31    17    38 1   
    32    18    39 1   
    33    19    40 1   
    34    19    41 1   
    35    19    42 1   
    36    20    21 1   
    37    21    22 ar  
    38    21    26 ar  
    39    22    23 ar  
    40    22    43 1   
    41    23    24 ar  
    42    23    44 1   
    43    24    25 ar  
    44    24    27 1   
    45    25    26 ar  
    46    25    45 1   
    47    26    46 1   
    48    27    28 1   
    49    27    47 1   
    50    27    50 1   
    51    28    29 1   
    52    28    48 1   
    53    28    51 1   
    54    29    49 1   
@<TRIPOS>SUBSTRUCTURE
     1 VMG         1 TEMP              0 ****  ****    0 ROOT
