@<TRIPOS>MOLECULE
VMG
   51    54     1     0     0
SMALL
bcc


@<TRIPOS>ATOM
      1 O11         37.0450   -14.9930    17.5620 o          1 VMG      -0.583500
      2 C1          37.0630   -15.7300    16.5990 c          1 VMG       0.767100
      3 C6          35.9650   -16.4010    15.9860 cc         1 VMG      -0.403900
      4 C7          34.5760   -16.4910    16.2040 cc         1 VMG       0.389200
      5 N8          34.0220   -17.2750    15.3110 nd         1 VMG      -0.517800
      6 N9          35.0110   -17.7080    14.5080 na         1 VMG       0.110400
      7 C10         34.7290   -18.5830    13.3980 c3         1 VMG       0.048600
      8 C5          36.1950   -17.2040    14.8780 cd         1 VMG       0.204100
      9 N4          37.3810   -17.4350    14.2840 nd         1 VMG      -0.673100
     10 C3          38.3790   -16.8320    14.8380 cc         1 VMG       0.554800
     11 S18         39.9960   -17.0010    14.1850 ss         1 VMG      -0.177300
     12 C19         39.7160   -18.1910    12.8130 c3         1 VMG       0.077700
     13 C20         40.8700   -17.9870    11.8660 ca         1 VMG      -0.086300
     14 C25         42.1690   -18.3430    12.2240 ca         1 VMG      -0.112000
     15 C24         43.2230   -18.1410    11.3440 ca         1 VMG      -0.128000
     16 C23         42.9910   -17.5860    10.0920 ca         1 VMG      -0.119000
     17 C22         41.7000   -17.2300     9.7270 ca         1 VMG      -0.128000
     18 C21         40.6480   -17.4260    10.6120 ca         1 VMG      -0.112000
     19 C26         39.5850   -19.6160    13.3240 c3         1 VMG      -0.081100
     20 N2          38.2830   -16.0140    15.9370 n          1 VMG      -0.322500
     21 C12         39.4630   -15.4030    16.4670 ca         1 VMG       0.010600
     22 C17         40.1770   -16.0470    17.4650 ca         1 VMG      -0.098500
     23 C16         41.3240   -15.4560    17.9710 ca         1 VMG      -0.116000
     24 C15         41.7730   -14.2300    17.4860 ca         1 VMG      -0.056300
     25 C14         41.0370   -13.6010    16.4830 ca         1 VMG      -0.116000
     26 C13         39.8850   -14.1780    15.9750 ca         1 VMG      -0.098500
     27 C27         43.0010   -13.5770    18.0530 c3         1 VMG      -0.035100
     28 C28         42.6720   -12.5540    19.1300 c3         1 VMG       0.143400
     29 O28         42.0300   -13.2070    20.2010 oh         1 VMG      -0.594800
     30 H1          33.9790   -16.0190    16.9690 h4         1 VMG       0.052100
     31 H2          34.1950   -19.4650    13.7440 h1         1 VMG       0.059367
     32 H3          34.1290   -18.0680    12.6490 h1         1 VMG       0.059367
     33 H4          35.6690   -18.8900    12.9490 h1         1 VMG       0.059367
     34 H5          38.7890   -17.8870    12.3260 h1         1 VMG       0.095700
     35 H6          42.3700   -18.7770    13.1970 ha         1 VMG       0.134000
     36 H7          44.2270   -18.4170    11.6380 ha         1 VMG       0.133000
     37 H8          43.8130   -17.4310     9.4050 ha         1 VMG       0.133000
     38 H9          41.5080   -16.7970     8.7540 ha         1 VMG       0.133000
     39 H10         39.6430   -17.1430    10.3240 ha         1 VMG       0.134000
     40 H11         38.7400   -19.7060    14.0050 hc         1 VMG       0.048367
     41 H12         39.4140   -20.2900    12.4840 hc         1 VMG       0.048367
     42 H13         40.4830   -19.9450    13.8450 hc         1 VMG       0.048367
     43 H14         39.8410   -17.0050    17.8410 ha         1 VMG       0.143000
     44 H15         41.8830   -15.9620    18.7480 ha         1 VMG       0.136000
     45 H16         41.3690   -12.6480    16.0900 ha         1 VMG       0.136000
     46 H17         39.3190   -13.6840    15.1950 ha         1 VMG       0.143000
     47 H18         43.6730   -14.3320    18.4660 hc         1 VMG       0.055200
     48 H19         43.6040   -12.0720    19.4500 h1         1 VMG       0.019700
     49 H20         41.7520   -12.5400    20.8340 ho         1 VMG       0.405000
     50 H21         43.5520   -13.0620    17.2630 hc         1 VMG       0.055200
     51 H22         42.0380   -11.7680    18.6990 h1         1 VMG       0.019700
@<TRIPOS>BOND
     1     1     2 2   
     2     2     3 1   
     3     2    20 1   
     4     3     4 1   
     5     3     8 2   
     6     4     5 2   
     7     4    30 1   
     8     5     6 1   
     9     6     7 1   
    10     6     8 1   
    11     7    31 1   
    12     7    32 1   
    13     7    33 1   
    14     8     9 1   
    15     9    10 2   
    16    10    11 1   
    17    10    20 1   
    18    11    12 1   
    19    12    13 1   
    20    12    19 1   
    21    12    34 1   
    22    13    14 ar  
    23    13    18 ar  
    24    14    15 ar  
    25    14    35 1   
    26    15    16 ar  
    27    15    36 1   
    28    16    17 ar  
    29    16    37 1   
    30    17    18 ar  
    31    17    38 1   
    32    18    39 1   
    33    19    40 1   
    34    19    41 1   
    35    19    42 1   
    36    20    21 1   
    37    21    22 ar  
    38    21    26 ar  
    39    22    23 ar  
    40    22    43 1   
    41    23    24 ar  
    42    23    44 1   
    43    24    25 ar  
    44    24    27 1   
    45    25    26 ar  
    46    25    45 1   
    47    26    46 1   
    48    27    28 1   
    49    27    47 1   
    50    27    50 1   
    51    28    29 1   
    52    28    48 1   
    53    28    51 1   
    54    29    49 1   
@<TRIPOS>SUBSTRUCTURE
     1 VMG         1 TEMP              0 ****  ****    0 ROOT
