@<TRIPOS>MOLECULE
VMH
   65    68     1     0     0
SMALL
No Charge or Current Charge


@<TRIPOS>ATOM
      1 C1           3.3740   -17.6640    21.6240 c3         1 VMH       0.090300
      2 C10         10.0920   -18.2640    20.9950 ca         1 VMH      -0.126600
      3 C11         10.4390   -19.5080    21.5590 ca         1 VMH      -0.083000
      4 C13         12.6330   -19.3490    20.5370 ca         1 VMH      -0.074000
      5 C14         12.2770   -18.1200    19.9560 ca         1 VMH      -0.103000
      6 C15         10.9980   -17.5510    20.1580 cp         1 VMH       0.008000
      7 C16         10.6420   -16.2880    19.4390 cp         1 VMH      -0.009000
      8 C17          9.5130   -16.2210    18.5860 ca         1 VMH      -0.095000
      9 C18          9.1900   -15.0400    17.8990 ca         1 VMH      -0.059000
     10 C19          9.9960   -13.8890    18.0360 ca         1 VMH      -0.181300
     11 C20         11.1260   -13.9470    18.8790 ca         1 VMH      -0.059000
     12 C21         11.4470   -15.1330    19.5640 ca         1 VMH      -0.095000
     13 C22          9.6520   -12.5900    17.3000 c3         1 VMH       0.343300
     14 C3           2.9940   -20.1720    21.6330 c3         1 VMH       0.090300
     15 C32          5.9710   -17.2700    19.7810 ca         1 VMH      -0.111300
     16 C33          5.7700   -17.9460    18.5610 ca         1 VMH      -0.065000
     17 C34          5.5110   -17.2210    17.3880 ca         1 VMH      -0.123000
     18 C35          5.4630   -15.8180    17.4180 ca         1 VMH      -0.054000
     19 C36          5.6830   -15.1240    18.6270 ca         1 VMH      -0.193300
     20 C37          5.9290   -15.8620    19.8050 ca         1 VMH      -0.038000
     21 C38          5.6470   -13.5930    18.6750 c3         1 VMH       0.344300
     22 C4           5.3080   -19.2680    21.2630 c          1 VMH       0.584100
     23 C6           6.2670   -18.0460    21.0660 c3         1 VMH       0.082000
     24 F23          8.8490   -12.7920    16.2300 f          1 VMH      -0.113000
     25 F24          9.0140   -11.7180    18.1120 f          1 VMH      -0.113000
     26 F25         10.7580   -11.9620    16.8380 f          1 VMH      -0.113000
     27 F39          5.9130   -13.0290    17.4750 f          1 VMH      -0.109667
     28 F40          4.4320   -13.1440    19.0620 f          1 VMH      -0.109667
     29 F41          6.5510   -13.0900    19.5460 f          1 VMH      -0.109667
     30 N2           3.9290   -19.0320    21.4890 n          1 VMH      -0.396800
     31 N7           7.6770   -18.4770    21.0570 ns         1 VMH      -0.496900
     32 O5           5.7320   -20.4190    21.1990 o          1 VMH      -0.622100
     33 O9           8.6060   -16.4760    21.6050 o          1 VMH      -0.593100
     34 C12         11.7180   -20.0570    21.3420 ca         1 VMH      -0.015000
     35 C26         12.1000   -21.3430    21.9320 cc         1 VMH      -0.098000
     36 C27         12.8850   -22.2640    21.3040 cd         1 VMH      -0.214000
     37 C28         12.9690   -23.3760    22.1660 cd         1 VMH       0.242900
     38 N29         12.2890   -23.2080    23.2880 nc         1 VMH      -0.518800
     39 N30         11.7430   -21.9440    23.1400 na         1 VMH       0.126800
     40 H1           2.3390   -17.7030    21.9880 h1         1 VMH       0.048367
     41 H2           3.9650   -17.0810    22.3400 h1         1 VMH       0.048367
     42 H3           3.3810   -17.1610    20.6490 h1         1 VMH       0.048367
     43 H4           9.7150   -20.0400    22.1690 ha         1 VMH       0.122000
     44 H5          13.6270   -19.7520    20.3590 ha         1 VMH       0.128000
     45 H6          12.9960   -17.6090    19.3200 ha         1 VMH       0.125000
     46 H7           8.8830   -17.0970    18.4550 ha         1 VMH       0.123500
     47 H8           8.3100   -15.0270    17.2600 ha         1 VMH       0.130500
     48 H9          11.7610   -13.0720    19.0080 ha         1 VMH       0.130500
     49 H10         12.3230   -15.1560    20.2080 ha         1 VMH       0.123500
     50 H11          1.9530   -19.8250    21.6360 h1         1 VMH       0.048367
     51 H12          3.1250   -20.8700    20.7960 h1         1 VMH       0.048367
     52 H13          3.1970   -20.6980    22.5740 h1         1 VMH       0.048367
     53 H14          5.8150   -19.0330    18.5180 ha         1 VMH       0.128000
     54 H15          5.3500   -17.7480    16.4500 ha         1 VMH       0.126000
     55 H16          5.2580   -15.2760    16.4960 ha         1 VMH       0.135000
     56 H17          6.0980   -15.3400    20.7450 ha         1 VMH       0.140000
     57 H18          6.1200   -17.3900    21.9340 h1         1 VMH       0.090700
     58 H19          7.8830   -19.4320    20.7860 hn         1 VMH       0.348500
     59 H20         13.3440   -22.1780    20.3250 ha         1 VMH       0.145000
     60 H21         13.5050   -24.3040    22.0040 h4         1 VMH       0.039100
     61 H22         11.2360   -21.8020    25.1860 h1         1 VMH       0.059700
     62 H23         11.0970   -20.2800    24.2650 h1         1 VMH       0.059700
     63 H24          9.8770   -21.5740    24.0470 h1         1 VMH       0.059700
     64 C8           8.7470   -17.6350    21.2390 c          1 VMH       0.606700
     65 C31         10.9380   -21.3640    24.2260 c3         1 VMH       0.070900
@<TRIPOS>BOND
     1     1    30 1   
     2     1    40 1   
     3     1    41 1   
     4     1    42 1   
     5     2     3 ar  
     6     2     6 ar  
     7     2    64 1   
     8     3    34 ar  
     9     3    43 1   
    10     4     5 ar  
    11     4    34 ar  
    12     4    44 1   
    13     5     6 ar  
    14     5    45 1   
    15     6     7 1   
    16     7     8 ar  
    17     7    12 ar  
    18     8     9 ar  
    19     8    46 1   
    20     9    10 ar  
    21     9    47 1   
    22    10    11 ar  
    23    10    13 1   
    24    11    12 ar  
    25    11    48 1   
    26    12    49 1   
    27    13    24 1   
    28    13    25 1   
    29    13    26 1   
    30    14    30 1   
    31    14    50 1   
    32    14    51 1   
    33    14    52 1   
    34    15    16 ar  
    35    15    20 ar  
    36    15    23 1   
    37    16    17 ar  
    38    16    53 1   
    39    17    18 ar  
    40    17    54 1   
    41    18    19 ar  
    42    18    55 1   
    43    19    20 ar  
    44    19    21 1   
    45    20    56 1   
    46    21    27 1   
    47    21    28 1   
    48    21    29 1   
    49    22    23 1   
    50    22    30 1   
    51    22    32 2   
    52    23    31 1   
    53    23    57 1   
    54    31    58 1   
    55    31    64 1   
    56    33    64 2   
    57    34    35 1   
    58    35    36 2   
    59    35    39 1   
    60    36    37 1   
    61    36    59 1   
    62    37    38 2   
    63    37    60 1   
    64    38    39 1   
    65    39    65 1   
    66    61    65 1   
    67    62    65 1   
    68    63    65 1   
@<TRIPOS>SUBSTRUCTURE
     1 VMH         1 TEMP              0 ****  ****    0 ROOT
