@<TRIPOS>MOLECULE
VMH
   65    68     1     0     0
SMALL
abcg2


@<TRIPOS>ATOM
      1 C1           3.5890   -17.8530    21.7520 c3         1 VMH       0.090300
      2 C10         10.0790   -18.3050    20.8590 ca         1 VMH      -0.126600
      3 C11         10.3760   -19.5230    21.4540 ca         1 VMH      -0.083000
      4 C13         12.6210   -19.3880    20.6280 ca         1 VMH      -0.074000
      5 C14         12.3140   -18.1920    19.9970 ca         1 VMH      -0.103000
      6 C15         11.0410   -17.6270    20.0920 cp         1 VMH       0.008000
      7 C16         10.7120   -16.3870    19.3520 cp         1 VMH      -0.009000
      8 C17          9.5850   -16.3440    18.5280 ca         1 VMH      -0.095000
      9 C18          9.2470   -15.1880    17.8430 ca         1 VMH      -0.059000
     10 C19         10.0390   -14.0520    17.9760 ca         1 VMH      -0.181300
     11 C20         11.1790   -14.0860    18.7770 ca         1 VMH      -0.059000
     12 C21         11.4980   -15.2390    19.4790 ca         1 VMH      -0.095000
     13 C22          9.7110   -12.8040    17.2160 c3         1 VMH       0.343300
     14 C3           3.3750   -20.3610    21.5110 c3         1 VMH       0.090300
     15 C32          5.9030   -17.1380    19.6910 ca         1 VMH      -0.111300
     16 C33          5.7360   -17.6800    18.4170 ca         1 VMH      -0.065000
     17 C34          5.4250   -16.8590    17.3410 ca         1 VMH      -0.123000
     18 C35          5.2880   -15.4870    17.5240 ca         1 VMH      -0.054000
     19 C36          5.4510   -14.9470    18.7950 ca         1 VMH      -0.193300
     20 C37          5.7580   -15.7700    19.8760 ca         1 VMH      -0.038000
     21 C38          5.3560   -13.4640    19.0130 c3         1 VMH       0.344300
     22 C4           5.4540   -19.2870    21.0120 c          1 VMH       0.584100
     23 C6           6.3140   -18.0240    20.8630 c3         1 VMH       0.082000
     24 F23          8.4240   -12.7600    16.8160 f          1 VMH      -0.113000
     25 F24          9.9340   -11.6840    17.9440 f          1 VMH      -0.113000
     26 F25         10.4640   -12.6720    16.0910 f          1 VMH      -0.113000
     27 F39          5.5380   -12.7590    17.8790 f          1 VMH      -0.109667
     28 F40          4.1430   -13.0930    19.5020 f          1 VMH      -0.109667
     29 F41          6.2700   -13.0170    19.9040 f          1 VMH      -0.109667
     30 N2           4.1660   -19.1400    21.3530 n          1 VMH      -0.396800
     31 N7           7.6860   -18.4560    20.6840 ns         1 VMH      -0.496900
     32 O5           5.9600   -20.3950    20.8000 o          1 VMH      -0.622100
     33 O9           8.5870   -16.5700    21.5520 o          1 VMH      -0.593100
     34 C12         11.6520   -20.0850    21.3570 ca         1 VMH      -0.015000
     35 C26         12.0020   -21.3620    21.9880 cc         1 VMH      -0.098000
     36 C27         12.8360   -22.3610    21.5030 cd         1 VMH      -0.214000
     37 C28         12.8680   -23.3330    22.5110 cd         1 VMH       0.242900
     38 N29         12.1360   -22.9630    23.5610 nc         1 VMH      -0.518800
     39 N30         11.6090   -21.7640    23.2300 na         1 VMH       0.126800
     40 H1           2.5690   -18.0240    22.0780 h1         1 VMH       0.048367
     41 H2           4.1590   -17.3980    22.5630 h1         1 VMH       0.048367
     42 H3           3.5620   -17.1530    20.9170 h1         1 VMH       0.048367
     43 H4           9.6020   -20.0330    22.0070 ha         1 VMH       0.122000
     44 H5          13.6220   -19.7920    20.5520 ha         1 VMH       0.128000
     45 H6          13.0610   -17.7110    19.3790 ha         1 VMH       0.125000
     46 H7           8.9810   -17.2320    18.4000 ha         1 VMH       0.123500
     47 H8           8.3640   -15.1740    17.2180 ha         1 VMH       0.130500
     48 H9          11.7870   -13.1990    18.8970 ha         1 VMH       0.130500
     49 H10         12.3670   -15.2510    20.1230 ha         1 VMH       0.123500
     50 H11          2.3720   -20.0890    21.8250 h1         1 VMH       0.048367
     51 H12          3.3110   -20.8980    20.5640 h1         1 VMH       0.048367
     52 H13          3.8180   -21.0060    22.2720 h1         1 VMH       0.048367
     53 H14          5.8620   -18.7440    18.2630 ha         1 VMH       0.128000
     54 H15          5.2630   -17.2910    16.3610 ha         1 VMH       0.126000
     55 H16          5.0640   -14.8440    16.6830 ha         1 VMH       0.135000
     56 H17          5.8920   -15.3480    20.8630 ha         1 VMH       0.140000
     57 H18          6.2670   -17.4230    21.7710 h1         1 VMH       0.090700
     58 H19          7.8140   -19.4240    20.4220 hn         1 VMH       0.348500
     59 H20         13.2650   -22.4150    20.5170 ha         1 VMH       0.145000
     60 H21         13.4100   -24.2660    22.5350 h4         1 VMH       0.039100
     61 H22         10.7670   -21.6830    25.1010 h1         1 VMH       0.059700
     62 H23         11.1780   -20.0960    24.4290 h1         1 VMH       0.059700
     63 H24          9.7510   -20.9680    23.8280 h1         1 VMH       0.059700
     64 C8           8.7250   -17.6990    21.0750 c          1 VMH       0.606700
     65 C31         10.7690   -21.0800    24.1990 c3         1 VMH       0.070900
@<TRIPOS>BOND
     1     1    30 1   
     2     1    40 1   
     3     1    41 1   
     4     1    42 1   
     5     2     3 ar  
     6     2     6 ar  
     7     2    64 1   
     8     3    34 ar  
     9     3    43 1   
    10     4     5 ar  
    11     4    34 ar  
    12     4    44 1   
    13     5     6 ar  
    14     5    45 1   
    15     6     7 1   
    16     7     8 ar  
    17     7    12 ar  
    18     8     9 ar  
    19     8    46 1   
    20     9    10 ar  
    21     9    47 1   
    22    10    11 ar  
    23    10    13 1   
    24    11    12 ar  
    25    11    48 1   
    26    12    49 1   
    27    13    24 1   
    28    13    25 1   
    29    13    26 1   
    30    14    30 1   
    31    14    50 1   
    32    14    51 1   
    33    14    52 1   
    34    15    16 ar  
    35    15    20 ar  
    36    15    23 1   
    37    16    17 ar  
    38    16    53 1   
    39    17    18 ar  
    40    17    54 1   
    41    18    19 ar  
    42    18    55 1   
    43    19    20 ar  
    44    19    21 1   
    45    20    56 1   
    46    21    27 1   
    47    21    28 1   
    48    21    29 1   
    49    22    23 1   
    50    22    30 1   
    51    22    32 2   
    52    23    31 1   
    53    23    57 1   
    54    31    58 1   
    55    31    64 1   
    56    33    64 2   
    57    34    35 1   
    58    35    36 2   
    59    35    39 1   
    60    36    37 1   
    61    36    59 1   
    62    37    38 2   
    63    37    60 1   
    64    38    39 1   
    65    39    65 1   
    66    61    65 1   
    67    62    65 1   
    68    63    65 1   
@<TRIPOS>SUBSTRUCTURE
     1 VMH         1 TEMP              0 ****  ****    0 ROOT
