@<TRIPOS>MOLECULE
VMJ
   48    51     1     0     0
SMALL
bcc


@<TRIPOS>ATOM
      1 O11         14.8720   146.5830    17.5010 o          1 VMJ      -0.584500
      2 C1          15.6450   146.5420    16.5660 c          1 VMJ       0.767100
      3 N2          15.9740   147.7240    15.8580 n          1 VMJ      -0.322500
      4 C12         15.3610   148.9360    16.3040 ca         1 VMJ       0.014600
      5 C13         14.1350   149.3210    15.7800 ca         1 VMJ      -0.100000
      6 C14         13.5500   150.4980    16.2150 ca         1 VMJ      -0.112500
      7 C15         14.1780   151.3020    17.1650 ca         1 VMJ      -0.072300
      8 C27         13.5300   152.5960    17.5730 c3         1 VMJ       0.184700
      9 O27         14.0360   153.0240    18.8100 oh         1 VMJ      -0.592800
     10 C16         15.4050   150.8970    17.6820 ca         1 VMJ      -0.112500
     11 C17         15.9940   149.7160    17.2560 ca         1 VMJ      -0.100000
     12 C3          16.8350   147.7560    14.7880 cc         1 VMJ       0.552800
     13 N4          17.4410   146.7240    14.3040 nd         1 VMJ      -0.668100
     14 C5          17.1660   145.5730    14.9460 cd         1 VMJ       0.199100
     15 N9          17.6650   144.3680    14.6480 na         1 VMJ       0.111400
     16 C10         18.5980   144.0490    13.5940 c3         1 VMJ       0.050600
     17 N8          17.1910   143.4230    15.4800 nd         1 VMJ      -0.516800
     18 C7          16.3810   144.0270    16.3170 cc         1 VMJ       0.389200
     19 C6          16.3190   145.4050    16.0320 cc         1 VMJ      -0.401900
     20 S18         17.0560   149.3380    14.0690 ss         1 VMJ      -0.180300
     21 C19         18.2810   148.9750    12.7470 c3         1 VMJ       0.080700
     22 C26         19.6850   148.8180    13.3060 c3         1 VMJ      -0.082100
     23 C20         18.1430   150.1050    11.7600 ca         1 VMJ      -0.087300
     24 C21         17.6200   149.8620    10.4940 ca         1 VMJ      -0.112000
     25 C22         17.4860   150.8920     9.5730 ca         1 VMJ      -0.128000
     26 C23         17.8650   152.1840     9.9130 ca         1 VMJ      -0.119000
     27 C24         18.3830   152.4370    11.1770 ca         1 VMJ      -0.128000
     28 C25         18.5240   151.4050    12.0940 ca         1 VMJ      -0.112000
     29 H1          13.6420   148.7020    15.0420 ha         1 VMJ       0.144500
     30 H2          12.5890   150.7900    15.8100 ha         1 VMJ       0.142500
     31 H3          13.7180   153.3360    16.7830 h1         1 VMJ       0.028200
     32 H4          12.4420   152.4520    17.6040 h1         1 VMJ       0.028200
     33 H5          13.7610   153.9350    18.9480 ho         1 VMJ       0.408000
     34 H6          15.9130   151.5000    18.4220 ha         1 VMJ       0.142500
     35 H7          16.9500   149.4070    17.6610 ha         1 VMJ       0.144500
     36 H8          18.8250   142.9890    13.6520 h1         1 VMJ       0.059033
     37 H9          18.1680   144.2700    12.6190 h1         1 VMJ       0.059033
     38 H10         19.5180   144.6180    13.7130 h1         1 VMJ       0.059033
     39 H11         15.8730   143.4710    17.0890 h4         1 VMJ       0.053100
     40 H12         17.9620   148.0430    12.2800 h1         1 VMJ       0.095700
     41 H13         19.7330   147.9880    14.0080 hc         1 VMJ       0.048700
     42 H14         20.3780   148.6090    12.4890 hc         1 VMJ       0.048700
     43 H15         20.0240   149.7200    13.8140 hc         1 VMJ       0.048700
     44 H16         17.3200   148.8570    10.2240 ha         1 VMJ       0.135000
     45 H17         17.0820   150.6840     8.5910 ha         1 VMJ       0.133500
     46 H18         17.7570   152.9890     9.1990 ha         1 VMJ       0.133000
     47 H19         18.6780   153.4410    11.4520 ha         1 VMJ       0.133500
     48 H20         18.9310   151.6220    13.0740 ha         1 VMJ       0.135000
@<TRIPOS>BOND
     1     1     2 2   
     2     2     3 1   
     3     2    19 1   
     4     3     4 1   
     5     3    12 1   
     6     4     5 ar  
     7     4    11 ar  
     8     5     6 ar  
     9     5    29 1   
    10     6     7 ar  
    11     6    30 1   
    12     7     8 1   
    13     7    10 ar  
    14     8     9 1   
    15     8    31 1   
    16     8    32 1   
    17     9    33 1   
    18    10    11 ar  
    19    10    34 1   
    20    11    35 1   
    21    12    13 2   
    22    12    20 1   
    23    13    14 1   
    24    14    15 1   
    25    14    19 2   
    26    15    16 1   
    27    15    17 1   
    28    16    36 1   
    29    16    37 1   
    30    16    38 1   
    31    17    18 2   
    32    18    19 1   
    33    18    39 1   
    34    20    21 1   
    35    21    22 1   
    36    21    23 1   
    37    21    40 1   
    38    22    41 1   
    39    22    42 1   
    40    22    43 1   
    41    23    24 ar  
    42    23    28 ar  
    43    24    25 ar  
    44    24    44 1   
    45    25    26 ar  
    46    25    45 1   
    47    26    27 ar  
    48    26    46 1   
    49    27    28 ar  
    50    27    47 1   
    51    28    48 1   
@<TRIPOS>SUBSTRUCTURE
     1 VMJ         1 TEMP              0 ****  ****    0 ROOT
