@<TRIPOS>MOLECULE
VMJ
   48    51     1     0     0
SMALL
No Charge or Current Charge


@<TRIPOS>ATOM
      1 O11         15.0070   146.3850    17.5400 o          1 VMJ      -0.509000
      2 C1          15.6230   146.4910    16.4890 c          1 VMJ       0.624600
      3 N2          15.7730   147.6910    15.7790 n          1 VMJ      -0.255500
      4 C12         15.2780   148.9280    16.3420 ca         1 VMJ       0.014600
      5 C13         13.9220   149.0400    16.7120 ca         1 VMJ      -0.082000
      6 C14         13.4120   150.2520    17.2100 ca         1 VMJ      -0.094500
      7 C15         14.2470   151.3780    17.3360 ca         1 VMJ      -0.072300
      8 C27         13.6940   152.6930    17.8710 c3         1 VMJ       0.207900
      9 O27         13.8360   152.7510    19.2950 oh         1 VMJ      -0.655000
     10 C16         15.5980   151.2760    16.9560 ca         1 VMJ      -0.094500
     11 C17         16.1080   150.0650    16.4570 ca         1 VMJ      -0.082000
     12 C3          16.5300   147.6910    14.5930 cc         1 VMJ       0.552800
     13 N4          17.1490   146.6470    14.0280 nd         1 VMJ      -0.668100
     14 C5          17.0220   145.4680    14.7370 cd         1 VMJ       0.148400
     15 N9          17.5120   144.1820    14.4930 na         1 VMJ       0.132800
     16 C10         18.3440   143.7550    13.3610 c3         1 VMJ       0.079900
     17 N8          17.1050   143.2850    15.4850 nd         1 VMJ      -0.516800
     18 C7          16.3850   144.0560    16.2880 cc         1 VMJ       0.323900
     19 C6          16.3080   145.3870    15.8640 cc         1 VMJ      -0.336600
     20 S18         16.5320   149.1110    13.5360 ss         1 VMJ      -0.228200
     21 C19         18.2060   149.0750    12.7390 c3         1 VMJ       0.128600
     22 C26         19.3110   149.2870    13.7980 c3         1 VMJ      -0.082100
     23 C20         18.2660   150.1270    11.6320 ca         1 VMJ      -0.087300
     24 C21         18.4760   149.7320    10.2950 ca         1 VMJ      -0.094000
     25 C22         18.5320   150.6930     9.2700 ca         1 VMJ      -0.110000
     26 C23         18.3760   152.0560     9.5720 ca         1 VMJ      -0.101000
     27 C24         18.1630   152.4580    10.9010 ca         1 VMJ      -0.110000
     28 C25         18.1070   151.4980    11.9270 ca         1 VMJ      -0.094000
     29 H1          13.2530   148.1890    16.6040 ha         1 VMJ       0.126500
     30 H2          12.3640   150.3170    17.4940 ha         1 VMJ       0.124500
     31 H3          14.2290   153.5290    17.4000 h1         1 VMJ       0.028200
     32 H4          12.6360   152.7810    17.5890 h1         1 VMJ       0.028200
     33 H5          13.4630   153.6150    19.5800 ho         1 VMJ       0.447000
     34 H6          16.2560   152.1380    17.0490 ha         1 VMJ       0.124500
     35 H7          17.1580   150.0080    16.1840 ha         1 VMJ       0.126500
     36 H8          18.9170   142.8620    13.6360 h1         1 VMJ       0.059033
     37 H9          17.7010   143.5280    12.5040 h1         1 VMJ       0.059033
     38 H10         19.0370   144.5620    13.0920 h1         1 VMJ       0.059033
     39 H11         15.9330   143.6180    17.1690 h4         1 VMJ       0.053100
     40 H12         18.3500   148.0880    12.2820 h1         1 VMJ       0.095700
     41 H13         19.3060   148.4790    14.5380 hc         1 VMJ       0.048700
     42 H14         20.2970   149.2990    13.3200 hc         1 VMJ       0.048700
     43 H15         19.1740   150.2360    14.3280 hc         1 VMJ       0.048700
     44 H16         18.5980   148.6800    10.0460 ha         1 VMJ       0.117000
     45 H17         18.6960   150.3800     8.2410 ha         1 VMJ       0.115500
     46 H18         18.4190   152.7990     8.7780 ha         1 VMJ       0.115000
     47 H19         18.0390   153.5120    11.1360 ha         1 VMJ       0.115500
     48 H20         17.9350   151.8230    12.9510 ha         1 VMJ       0.117000
@<TRIPOS>BOND
     1     1     2 2   
     2     2     3 1   
     3     2    19 1   
     4     3     4 1   
     5     3    12 1   
     6     4     5 ar  
     7     4    11 ar  
     8     5     6 ar  
     9     5    29 1   
    10     6     7 ar  
    11     6    30 1   
    12     7     8 1   
    13     7    10 ar  
    14     8     9 1   
    15     8    31 1   
    16     8    32 1   
    17     9    33 1   
    18    10    11 ar  
    19    10    34 1   
    20    11    35 1   
    21    12    13 2   
    22    12    20 1   
    23    13    14 1   
    24    14    15 1   
    25    14    19 2   
    26    15    16 1   
    27    15    17 1   
    28    16    36 1   
    29    16    37 1   
    30    16    38 1   
    31    17    18 2   
    32    18    19 1   
    33    18    39 1   
    34    20    21 1   
    35    21    22 1   
    36    21    23 1   
    37    21    40 1   
    38    22    41 1   
    39    22    42 1   
    40    22    43 1   
    41    23    24 ar  
    42    23    28 ar  
    43    24    25 ar  
    44    24    44 1   
    45    25    26 ar  
    46    25    45 1   
    47    26    27 ar  
    48    26    46 1   
    49    27    28 ar  
    50    27    47 1   
    51    28    48 1   
@<TRIPOS>SUBSTRUCTURE
     1 VMJ         1 TEMP              0 ****  ****    0 ROOT
