@<TRIPOS>MOLECULE
VMK
   30    31     1     0     0
SMALL
abcg2


@<TRIPOS>ATOM
      1 C10        112.1330   102.9750   140.3290 ca         1 VMK      -0.141000
      2 C13        113.8490   102.0850   142.3290 ca         1 VMK      -0.086000
      3 C01        108.1680   102.4890   143.1170 ca         1 VMK      -0.109000
      4 N01        105.2210   101.7250   141.5900 n8         1 VMK      -1.005200
      5 C02        107.4760   103.5250   142.4890 ca         1 VMK      -0.076300
      6 C03        108.1760   104.3150   141.5730 ca         1 VMK      -0.109000
      7 C04        109.5130   104.0760   141.2920 ca         1 VMK      -0.096500
      8 C05        110.2060   103.0340   141.9200 cp         1 VMK      -0.045000
      9 C06        109.5070   102.2460   142.8390 ca         1 VMK      -0.096500
     10 C08        105.1130   103.1880   141.6530 c3         1 VMK       0.155800
     11 C09        111.6320   102.7760   141.6210 cp         1 VMK      -0.003000
     12 C11        113.4680   102.7250   140.0770 ca         1 VMK       0.164000
     13 C12        114.3490   102.2810   141.0450 ca         1 VMK      -0.146000
     14 C14        112.5110   102.3270   142.6150 ca         1 VMK      -0.118000
     15 F01        113.9300   102.9140   138.8120 f          1 VMK      -0.186000
     16 H1         111.4930   103.3010   139.5210 ha         1 VMK       0.132000
     17 H2         114.5130   101.7460   143.1130 ha         1 VMK       0.118000
     18 H3         107.6490   101.8580   143.8280 ha         1 VMK       0.116500
     19 H4         104.6110   101.3690   140.8620 hn         1 VMK       0.396000
     20 H5         106.1640   101.4640   141.3170 hn         1 VMK       0.396000
     21 H7         107.6670   105.1350   141.0800 ha         1 VMK       0.116500
     22 H8         110.0300   104.7210   140.5930 ha         1 VMK       0.115000
     23 H9         110.0090   101.4230   143.3310 ha         1 VMK       0.115000
     24 H10        105.8220   104.8380   142.8190 hc         1 VMK       0.056200
     25 H11        105.7320   103.3160   143.7080 hc         1 VMK       0.056200
     26 H12        105.3640   103.6760   140.7010 h1         1 VMK       0.029700
     27 H13        104.0750   103.4400   141.8810 h1         1 VMK       0.029700
     28 H14        115.3870   102.0990   140.8000 ha         1 VMK       0.133000
     29 H15        112.1490   102.1840   143.6250 ha         1 VMK       0.120000
     30 C07        106.0120   103.7640   142.7520 c3         1 VMK      -0.033100
@<TRIPOS>BOND
     1     1    11 ar  
     2     1    12 ar  
     3     1    16 1   
     4     2    13 ar  
     5     2    14 ar  
     6     2    17 1   
     7     3     5 ar  
     8     3     9 ar  
     9     3    18 1   
    10     4    10 1   
    11     4    19 1   
    12     4    20 1   
    13     5     6 ar  
    14     5    30 1   
    15     6     7 ar  
    16     6    21 1   
    17     7     8 ar  
    18     7    22 1   
    19     8     9 ar  
    20     8    11 1   
    21     9    23 1   
    22    10    26 1   
    23    10    27 1   
    24    10    30 1   
    25    11    14 ar  
    26    12    13 ar  
    27    12    15 1   
    28    13    28 1   
    29    14    29 1   
    30    24    30 1   
    31    25    30 1   
@<TRIPOS>SUBSTRUCTURE
     1 VMK         1 TEMP              0 ****  ****    0 ROOT
