@<TRIPOS>MOLECULE
VMK
   30    31     1     0     0
SMALL
No Charge or Current Charge


@<TRIPOS>ATOM
      1 C10        112.1690   102.9160   140.3040 ca         1 VMK      -0.141000
      2 C13        113.9350   102.1550   142.3530 ca         1 VMK      -0.086000
      3 C01        108.1790   102.4570   143.1930 ca         1 VMK      -0.109000
      4 N01        105.1020   101.8030   141.4390 n8         1 VMK      -1.005200
      5 C02        107.4610   103.4540   142.5080 ca         1 VMK      -0.076300
      6 C03        108.1200   104.2280   141.5350 ca         1 VMK      -0.109000
      7 C04        109.4780   104.0040   141.2480 ca         1 VMK      -0.096500
      8 C05        110.2160   103.0020   141.9270 cp         1 VMK      -0.045000
      9 C06        109.5370   102.2340   142.9060 ca         1 VMK      -0.096500
     10 C08        105.0340   103.2570   141.6860 c3         1 VMK       0.155800
     11 C09        111.6640   102.7640   141.6210 cp         1 VMK      -0.003000
     12 C11        113.5250   102.6920   140.0220 ca         1 VMK       0.164000
     13 C12        114.4100   102.3120   141.0410 ca         1 VMK      -0.146000
     14 C14        112.5760   102.3790   142.6370 ca         1 VMK      -0.118000
     15 F01        113.9810   102.8390   138.7590 f          1 VMK      -0.186000
     16 H1         111.5050   103.1960   139.4920 ha         1 VMK       0.132000
     17 H2         114.6170   101.8640   143.1490 ha         1 VMK       0.118000
     18 H3         107.6850   101.8470   143.9460 ha         1 VMK       0.116500
     19 H4         104.5610   101.5810   140.5940 hn         1 VMK       0.396000
     20 H5         106.0660   101.5640   141.1800 hn         1 VMK       0.396000
     21 H7         107.5820   105.0080   141.0020 ha         1 VMK       0.116500
     22 H8         109.9650   104.6260   140.5010 ha         1 VMK       0.115000
     23 H9         110.0630   101.4470   143.4400 ha         1 VMK       0.115000
     24 H10        105.8290   104.7740   142.9990 hc         1 VMK       0.056200
     25 H11        105.6950   103.1990   143.7490 hc         1 VMK       0.056200
     26 H12        105.2980   103.7850   140.7590 h1         1 VMK       0.029700
     27 H13        104.0010   103.5210   141.9490 h1         1 VMK       0.029700
     28 H14        115.4590   102.1400   140.8130 ha         1 VMK       0.133000
     29 H15        112.2300   102.2650   143.6620 ha         1 VMK       0.120000
     30 C07        105.9860   103.7040   142.8190 c3         1 VMK      -0.033100
@<TRIPOS>BOND
     1     1    11 ar  
     2     1    12 ar  
     3     1    16 1   
     4     2    13 ar  
     5     2    14 ar  
     6     2    17 1   
     7     3     5 ar  
     8     3     9 ar  
     9     3    18 1   
    10     4    10 1   
    11     4    19 1   
    12     4    20 1   
    13     5     6 ar  
    14     5    30 1   
    15     6     7 ar  
    16     6    21 1   
    17     7     8 ar  
    18     7    22 1   
    19     8     9 ar  
    20     8    11 1   
    21     9    23 1   
    22    10    26 1   
    23    10    27 1   
    24    10    30 1   
    25    11    14 ar  
    26    12    13 ar  
    27    12    15 1   
    28    13    28 1   
    29    14    29 1   
    30    24    30 1   
    31    25    30 1   
@<TRIPOS>SUBSTRUCTURE
     1 VMK         1 TEMP              0 ****  ****    0 ROOT
