@<TRIPOS>MOLECULE
VML
   54    56     1     0     0
SMALL
abcg2


@<TRIPOS>ATOM
      1 C1          16.6210    21.1740    19.1170 c3         1 VML       0.091300
      2 C10          9.8000    19.1160    19.0620 ca         1 VML      -0.187600
      3 C11          9.3730    20.2270    19.7820 ca         1 VML       0.361900
      4 C13          7.2580    20.0750    18.9440 ca         1 VML       0.349900
      5 C14          7.5920    18.9690    18.1720 ca         1 VML      -0.158000
      6 C15          8.8910    18.4680    18.2130 cp         1 VML       0.039000
      7 C16          9.2920    17.3260    17.3630 cp         1 VML      -0.015000
      8 C17          8.5150    16.1660    17.3180 ca         1 VML      -0.093500
      9 C18          8.8750    15.1040    16.5000 ca         1 VML      -0.059500
     10 C19         10.0180    15.1970    15.7100 ca         1 VML      -0.180300
     11 C20         10.7940    16.3510    15.7380 ca         1 VML      -0.059500
     12 C21         10.4340    17.4050    16.5620 ca         1 VML      -0.093500
     13 C22         10.3890    14.0710    14.7910 c3         1 VML       0.344300
     14 C26         13.8860    17.8540    18.0080 ca         1 VML      -0.123300
     15 C27         14.0260    18.2260    16.6730 ca         1 VML      -0.070000
     16 C28         14.2610    17.2670    15.6970 ca         1 VML      -0.128000
     17 C29         14.3430    15.9220    16.0400 ca         1 VML      -0.050000
     18 C3          16.3170    18.7880    19.8890 c3         1 VML       0.091300
     19 C30         14.1840    15.5500    17.3710 ca         1 VML      -0.192300
     20 C31         13.9710    16.5120    18.3540 ca         1 VML      -0.029000
     21 C32         14.2840    14.1080    17.7680 c3         1 VML       0.344300
     22 C4          14.4760    20.1290    18.9370 c          1 VML       0.588100
     23 C6          13.5730    18.8960    19.0740 c3         1 VML       0.088000
     24 F23         10.0780    12.8600    15.3030 f          1 VML      -0.112667
     25 F24          9.7440    14.1540    13.5980 f          1 VML      -0.112667
     26 F25         11.7080    14.0490    14.5050 f          1 VML      -0.112667
     27 F33         13.9350    13.2670    16.7710 f          1 VML      -0.110333
     28 F34         15.5470    13.7640    18.1310 f          1 VML      -0.110333
     29 F35         13.4960    13.8080    18.8250 f          1 VML      -0.110333
     30 N12          8.1270    20.7060    19.7370 nb         1 VML      -0.658000
     31 N2          15.7590    20.0070    19.3040 n          1 VML      -0.398800
     32 N7          12.2000    19.3470    18.9570 ns         1 VML      -0.497900
     33 O5          14.0140    21.1760    18.4700 o          1 VML      -0.622100
     34 O9          11.3150    17.4360    19.7850 o          1 VML      -0.589100
     35 H1          17.6390    20.9010    19.3750 h1         1 VML       0.048033
     36 H2          16.5900    21.5060    18.0790 h1         1 VML       0.048033
     37 H3          16.2940    22.0010    19.7500 h1         1 VML       0.048033
     38 H4          10.0650    20.7350    20.4450 h4         1 VML       0.029100
     39 H5           6.2500    20.4740    18.9130 h4         1 VML       0.026100
     40 H6           6.8540    18.5240    17.5180 ha         1 VML       0.131000
     41 H7           7.6310    16.0840    17.9380 ha         1 VML       0.124500
     42 H8           8.2720    14.2060    16.4880 ha         1 VML       0.131500
     43 H9          11.6750    16.4330    15.1190 ha         1 VML       0.131500
     44 H10         11.0400    18.3000    16.5680 ha         1 VML       0.124500
     45 H11         13.9410    19.2680    16.3910 ha         1 VML       0.129000
     46 H12         14.3740    17.5650    14.6630 ha         1 VML       0.125000
     47 H13         14.5060    15.1740    15.2770 ha         1 VML       0.137000
     48 H14         17.3110    19.0130    20.2650 h1         1 VML       0.048033
     49 H15         15.7120    18.4340    20.7230 h1         1 VML       0.048033
     50 H16         16.3990    17.9920    19.1480 h1         1 VML       0.048033
     51 H17         13.8500    16.2200    19.3870 ha         1 VML       0.142000
     52 H18         13.7050    18.4390    20.0540 h1         1 VML       0.088700
     53 H19         12.0600    20.2550    18.5340 hn         1 VML       0.350500
     54 C8          11.1700    18.5540    19.2940 c          1 VML       0.615700
@<TRIPOS>BOND
     1     1    31 1   
     2     1    35 1   
     3     1    36 1   
     4     1    37 1   
     5     2     3 ar  
     6     2     6 ar  
     7     2    54 1   
     8     3    30 ar  
     9     3    38 1   
    10     4     5 ar  
    11     4    30 ar  
    12     4    39 1   
    13     5     6 ar  
    14     5    40 1   
    15     6     7 1   
    16     7     8 ar  
    17     7    12 ar  
    18     8     9 ar  
    19     8    41 1   
    20     9    10 ar  
    21     9    42 1   
    22    10    11 ar  
    23    10    13 1   
    24    11    12 ar  
    25    11    43 1   
    26    12    44 1   
    27    13    24 1   
    28    13    25 1   
    29    13    26 1   
    30    14    15 ar  
    31    14    20 ar  
    32    14    23 1   
    33    15    16 ar  
    34    15    45 1   
    35    16    17 ar  
    36    16    46 1   
    37    17    19 ar  
    38    17    47 1   
    39    18    31 1   
    40    18    48 1   
    41    18    49 1   
    42    18    50 1   
    43    19    20 ar  
    44    19    21 1   
    45    20    51 1   
    46    21    27 1   
    47    21    28 1   
    48    21    29 1   
    49    22    23 1   
    50    22    31 1   
    51    22    33 2   
    52    23    32 1   
    53    23    52 1   
    54    32    53 1   
    55    32    54 1   
    56    34    54 2   
@<TRIPOS>SUBSTRUCTURE
     1 VML         1 TEMP              0 ****  ****    0 ROOT
