@<TRIPOS>MOLECULE
VML
   54    56     1     0     0
SMALL
No Charge or Current Charge


@<TRIPOS>ATOM
      1 C1          16.8440    21.0860    19.7050 c3         1 VML       0.091300
      2 C10          9.7540    19.2040    18.9020 ca         1 VML      -0.187600
      3 C11          9.3830    20.4610    19.3960 ca         1 VML       0.361900
      4 C13          7.3040    20.3090    18.3870 ca         1 VML       0.349900
      5 C14          7.6080    19.0510    17.8410 ca         1 VML      -0.158000
      6 C15          8.8690    18.4590    18.0770 cp         1 VML       0.039000
      7 C16          9.2220    17.1590    17.4240 cp         1 VML      -0.015000
      8 C17          8.3760    16.0330    17.5490 ca         1 VML      -0.093500
      9 C18          8.6970    14.8130    16.9300 ca         1 VML      -0.059500
     10 C19          9.8690    14.6880    16.1530 ca         1 VML      -0.180300
     11 C20         10.7160    15.8090    16.0160 ca         1 VML      -0.059500
     12 C21         10.3930    17.0250    16.6390 ca         1 VML      -0.093500
     13 C22         10.2160    13.3510    15.4900 c3         1 VML       0.344300
     14 C26         13.8980    18.1160    17.9070 ca         1 VML      -0.123300
     15 C27         14.1680    18.7160    16.6620 ca         1 VML      -0.070000
     16 C28         14.4590    17.9190    15.5440 ca         1 VML      -0.128000
     17 C29         14.4710    16.5190    15.6550 ca         1 VML      -0.050000
     18 C3          16.4290    18.5870    19.8210 c3         1 VML       0.091300
     19 C30         14.1810    15.9010    16.8910 ca         1 VML      -0.192300
     20 C31         13.9040    16.7110    18.0130 ca         1 VML      -0.029000
     21 C32         14.1740    14.3750    17.0270 c3         1 VML       0.344300
     22 C4          14.5330    20.1910    19.2970 c          1 VML       0.588100
     23 C6          13.5640    18.9710    19.1330 c3         1 VML       0.088000
     24 F23         10.8050    12.5060    16.3650 f          1 VML      -0.112667
     25 F24          9.1170    12.7220    15.0130 f          1 VML      -0.112667
     26 F25         11.0630    13.4910    14.4450 f          1 VML      -0.112667
     27 F33         13.9550    13.7490    15.8490 f          1 VML      -0.110333
     28 F34         15.3550    13.9210    17.5020 f          1 VML      -0.110333
     29 F35         13.2140    13.9450    17.8770 f          1 VML      -0.110333
     30 N12          8.1730    21.0130    19.1480 nb         1 VML      -0.658000
     31 N2          15.8990    19.9520    19.5890 n          1 VML      -0.398800
     32 N7          12.1610    19.4180    19.0410 ns         1 VML      -0.497900
     33 O5          14.1290    21.3420    19.1500 o          1 VML      -0.622100
     34 O9          11.1910    17.4650    19.6760 o          1 VML      -0.589100
     35 H1          17.8790    20.7270    19.7700 h1         1 VML       0.048033
     36 H2          16.7560    21.7360    18.8250 h1         1 VML       0.048033
     37 H3          16.6120    21.6690    20.6060 h1         1 VML       0.048033
     38 H4          10.0570    21.0380    20.0280 h4         1 VML       0.029100
     39 H5           6.3370    20.7740    18.2000 h4         1 VML       0.026100
     40 H6           6.8740    18.5510    17.2160 ha         1 VML       0.131000
     41 H7           7.4680    16.1070    18.1420 ha         1 VML       0.124500
     42 H8           8.0300    13.9620    17.0580 ha         1 VML       0.131500
     43 H9          11.6280    15.7450    15.4270 ha         1 VML       0.131500
     44 H10         11.0570    17.8770    16.5070 ha         1 VML       0.124500
     45 H11         14.1520    19.7990    16.5550 ha         1 VML       0.129000
     46 H12         14.6740    18.3870    14.5860 ha         1 VML       0.125000
     47 H13         14.7020    15.9200    14.7760 ha         1 VML       0.137000
     48 H14         17.4500    18.6330    20.2210 h1         1 VML       0.048033
     49 H15         15.8030    18.0530    20.5460 h1         1 VML       0.048033
     50 H16         16.4510    18.0300    18.8760 h1         1 VML       0.048033
     51 H17         13.6820    16.2470    18.9720 ha         1 VML       0.142000
     52 H18         13.6680    18.3660    20.0420 h1         1 VML       0.088700
     53 H19         11.9840    20.3560    18.6970 hn         1 VML       0.350500
     54 C8          11.0760    18.5990    19.2350 c          1 VML       0.615700
@<TRIPOS>BOND
     1     1    31 1   
     2     1    35 1   
     3     1    36 1   
     4     1    37 1   
     5     2     3 ar  
     6     2     6 ar  
     7     2    54 1   
     8     3    30 ar  
     9     3    38 1   
    10     4     5 ar  
    11     4    30 ar  
    12     4    39 1   
    13     5     6 ar  
    14     5    40 1   
    15     6     7 1   
    16     7     8 ar  
    17     7    12 ar  
    18     8     9 ar  
    19     8    41 1   
    20     9    10 ar  
    21     9    42 1   
    22    10    11 ar  
    23    10    13 1   
    24    11    12 ar  
    25    11    43 1   
    26    12    44 1   
    27    13    24 1   
    28    13    25 1   
    29    13    26 1   
    30    14    15 ar  
    31    14    20 ar  
    32    14    23 1   
    33    15    16 ar  
    34    15    45 1   
    35    16    17 ar  
    36    16    46 1   
    37    17    19 ar  
    38    17    47 1   
    39    18    31 1   
    40    18    48 1   
    41    18    49 1   
    42    18    50 1   
    43    19    20 ar  
    44    19    21 1   
    45    20    51 1   
    46    21    27 1   
    47    21    28 1   
    48    21    29 1   
    49    22    23 1   
    50    22    31 1   
    51    22    33 2   
    52    23    32 1   
    53    23    52 1   
    54    32    53 1   
    55    32    54 1   
    56    34    54 2   
@<TRIPOS>SUBSTRUCTURE
     1 VML         1 TEMP              0 ****  ****    0 ROOT
