@<TRIPOS>MOLECULE
VMN
   26    27     1     0     0
SMALL
abcg2


@<TRIPOS>ATOM
      1 C1          -6.7190     5.6600   -15.9180 cc         1 VMN       0.221100
      2 C2          -5.6510     6.5040   -15.7610 cd         1 VMN      -0.379200
      3 C3          -5.3900     7.5660   -16.6760 c          1 VMN       0.568200
      4 N4          -6.3150     7.6900   -17.7320 n          1 VMN      -0.282000
      5 C5          -7.3670     6.8450   -17.8750 cd         1 VMN       0.008600
      6 C6          -7.6110     5.8300   -17.0070 cc         1 VMN      -0.372000
      7 O7          -6.8990     4.6700   -15.0170 oh         1 VMN      -0.523100
      8 O8          -4.4310     8.3500   -16.5970 o          1 VMN      -0.572000
      9 C9          -6.1120     8.7480   -18.7370 c3         1 VMN       0.132300
     10 C10         -5.4560     8.2280   -19.9920 ca         1 VMN      -0.117300
     11 C11         -6.1400     8.2470   -21.2040 ca         1 VMN      -0.085500
     12 C12         -5.5500     7.7620   -22.3680 ca         1 VMN      -0.104500
     13 C13         -4.2630     7.2510   -22.3020 ca         1 VMN       0.131000
     14 C14         -3.5580     7.2190   -21.1050 ca         1 VMN      -0.104500
     15 C15         -4.1600     7.7110   -19.9560 ca         1 VMN      -0.085500
     16 CL16        -3.5100     6.6310   -23.7580 cl         1 VMN      -0.209000
     17 H1          -4.9670     6.3790   -14.9330 ha         1 VMN       0.224000
     18 H2          -8.0050     7.0320   -18.7280 h4         1 VMN       0.201000
     19 H3          -8.4610     5.1780   -17.1460 ha         1 VMN       0.200000
     20 H4          -7.6840     4.1480   -15.2380 ho         1 VMN       0.470000
     21 H5          -7.0850     9.1770   -18.9690 h1         1 VMN       0.078200
     22 H6          -5.4970     9.5100   -18.2660 h1         1 VMN       0.078200
     23 H7          -7.1470     8.6440   -21.2470 ha         1 VMN       0.127000
     24 H8          -6.0860     7.7780   -23.3070 ha         1 VMN       0.133000
     25 H9          -2.5540     6.8180   -21.0740 ha         1 VMN       0.133000
     26 H10         -3.6170     7.6920   -19.0190 ha         1 VMN       0.127000
@<TRIPOS>BOND
     1     1     2 2   
     2     1     6 1   
     3     1     7 1   
     4     2     3 1   
     5     2    17 1   
     6     3     4 1   
     7     3     8 2   
     8     4     5 1   
     9     4     9 1   
    10     5     6 2   
    11     5    18 1   
    12     6    19 1   
    13     7    20 1   
    14     9    10 1   
    15     9    21 1   
    16     9    22 1   
    17    10    11 ar  
    18    10    15 ar  
    19    11    12 ar  
    20    11    23 1   
    21    12    13 ar  
    22    12    24 1   
    23    13    14 ar  
    24    13    16 1   
    25    14    15 ar  
    26    14    25 1   
    27    15    26 1   
@<TRIPOS>SUBSTRUCTURE
     1 VMN         1 TEMP              0 ****  ****    0 ROOT
