@<TRIPOS>MOLECULE
VMN
   26    27     1     0     0
SMALL
No Charge or Current Charge


@<TRIPOS>ATOM
      1 C1          -6.8120     5.6240   -15.8690 cc         1 VMN       0.221100
      2 C2          -5.7020     6.4000   -15.7220 cd         1 VMN      -0.379200
      3 C3          -5.3620     7.4890   -16.6450 c          1 VMN       0.568200
      4 N4          -6.2730     7.6860   -17.7100 n          1 VMN      -0.282000
      5 C5          -7.4030     6.8850   -17.8570 cd         1 VMN       0.008600
      6 C6          -7.6840     5.8730   -16.9650 cc         1 VMN      -0.372000
      7 O7          -7.1080     4.6350   -15.0180 oh         1 VMN      -0.523100
      8 O8          -4.3560     8.1670   -16.4870 o          1 VMN      -0.572000
      9 C9          -6.0070     8.7580   -18.6970 c3         1 VMN       0.132300
     10 C10         -5.3900     8.2350   -19.9890 ca         1 VMN      -0.117300
     11 C11         -6.1890     8.0450   -21.1350 ca         1 VMN      -0.085500
     12 C12         -5.6160     7.5560   -22.3230 ca         1 VMN      -0.104500
     13 C13         -4.2460     7.2570   -22.3710 ca         1 VMN       0.131000
     14 C14         -3.4440     7.4440   -21.2330 ca         1 VMN      -0.104500
     15 C15         -4.0150     7.9330   -20.0450 ca         1 VMN      -0.085500
     16 Cl16        -3.5310     6.6450   -23.8580 cl         1 VMN      -0.209000
     17 H1          -5.0060     6.2520   -14.9080 ha         1 VMN       0.224000
     18 H2          -8.0180     7.1310   -18.7200 h4         1 VMN       0.201000
     19 H3          -8.5730     5.2620   -17.1000 ha         1 VMN       0.200000
     20 H4          -7.9420     4.2340   -15.3370 ho         1 VMN       0.470000
     21 H5          -6.9520     9.2670   -18.9250 h1         1 VMN       0.078200
     22 H6          -5.3470     9.5210   -18.2650 h1         1 VMN       0.078200
     23 H7          -7.2530     8.2730   -21.1080 ha         1 VMN       0.127000
     24 H8          -6.2340     7.4090   -23.2060 ha         1 VMN       0.133000
     25 H9          -2.3830     7.2110   -21.2730 ha         1 VMN       0.133000
     26 H10         -3.3880     8.0740   -19.1660 ha         1 VMN       0.127000
@<TRIPOS>BOND
     1     1     2 2   
     2     1     6 1   
     3     1     7 1   
     4     2     3 1   
     5     2    17 1   
     6     3     4 1   
     7     3     8 2   
     8     4     5 1   
     9     4     9 1   
    10     5     6 2   
    11     5    18 1   
    12     6    19 1   
    13     7    20 1   
    14     9    10 1   
    15     9    21 1   
    16     9    22 1   
    17    10    11 ar  
    18    10    15 ar  
    19    11    12 ar  
    20    11    23 1   
    21    12    13 ar  
    22    12    24 1   
    23    13    14 ar  
    24    13    16 1   
    25    14    15 ar  
    26    14    25 1   
    27    15    26 1   
@<TRIPOS>SUBSTRUCTURE
     1 VMN         1 TEMP              0 ****  ****    0 ROOT
