@<TRIPOS>MOLECULE
VMO
   23    23     1     0     0
SMALL
abcg2


@<TRIPOS>ATOM
      1 CAA        -63.4860    18.4550   -31.5680 c5         1 VMO       0.150500
      2 CAB        -62.6390    19.5920   -32.1530 c5         1 VMO       0.122300
      3 CAD        -61.4500    18.8020   -32.6970 c5         1 VMO       0.151300
      4 CAE        -62.1330    17.5950   -33.3280 c5         1 VMO       0.174800
      5 CAF        -64.9400    18.8470   -31.3830 c3         1 VMO       0.171600
      6 NAH        -63.2950    17.3260   -32.4830 n3         1 VMO      -0.722600
      7 OAJ        -63.2550    20.2640   -33.2270 oh         1 VMO      -0.630000
      8 OAK        -60.6340    19.4620   -33.6210 oh         1 VMO      -0.628000
      9 OAL        -65.6160    17.8460   -30.6540 oh         1 VMO      -0.660000
     10 H1         -63.0690    18.2280   -30.5720 h1         1 VMO       0.042700
     11 H2         -62.3440    20.2970   -31.3650 h1         1 VMO       0.036700
     12 H3         -60.8740    18.4580   -31.8260 h1         1 VMO       0.028700
     13 H4         -62.4300    17.8280   -34.3580 h1         1 VMO       0.063200
     14 H5         -61.4640    16.7320   -33.3740 h1         1 VMO       0.063200
     15 H6         -64.9780    19.8110   -30.8530 h1         1 VMO       0.024200
     16 H7         -65.3950    18.9970   -32.3690 h1         1 VMO       0.024200
     17 H8         -64.1700    15.8690   -31.2680 h1         1 VMO       0.033367
     18 H9         -63.1870    15.2420   -32.5820 h1         1 VMO       0.033367
     19 H10        -62.4070    15.9150   -31.1430 h1         1 VMO       0.033367
     20 H12        -63.8840    20.8990   -32.8740 ho         1 VMO       0.437000
     21 H13        -60.1540    20.1600   -33.1630 ho         1 VMO       0.443000
     22 H14        -66.5520    18.0640   -30.6440 ho         1 VMO       0.444000
     23 CAG        -63.2570    16.0340   -31.8350 c3         1 VMO       0.162100
@<TRIPOS>BOND
     1     1     2 1   
     2     1     5 1   
     3     1     6 1   
     4     1    10 1   
     5     2     3 1   
     6     2     7 1   
     7     2    11 1   
     8     3     4 1   
     9     3     8 1   
    10     3    12 1   
    11     4     6 1   
    12     4    13 1   
    13     4    14 1   
    14     5     9 1   
    15     5    15 1   
    16     5    16 1   
    17     6    23 1   
    18     7    20 1   
    19     8    21 1   
    20     9    22 1   
    21    17    23 1   
    22    18    23 1   
    23    19    23 1   
@<TRIPOS>SUBSTRUCTURE
     1 VMO         1 TEMP              0 ****  ****    0 ROOT
