@<TRIPOS>MOLECULE
VMO
   23    23     1     0     0
SMALL
No Charge or Current Charge


@<TRIPOS>ATOM
      1 CAA        -63.3200    18.4930   -31.4750 c5         1 VMO       0.150500
      2 CAB        -62.5330    19.6850   -32.1040 c5         1 VMO       0.122300
      3 CAD        -61.2310    18.9300   -32.5270 c5         1 VMO       0.151300
      4 CAE        -61.7720    17.5150   -32.9570 c5         1 VMO       0.174800
      5 CAF        -64.7500    18.8860   -30.9810 c3         1 VMO       0.171600
      6 NAH        -63.2320    17.5530   -32.6370 n3         1 VMO      -0.722600
      7 OAJ        -63.2230    20.2080   -33.2510 oh         1 VMO      -0.630000
      8 OAK        -60.5380    19.6320   -33.5640 oh         1 VMO      -0.628000
      9 OAL        -65.3390    17.8570   -30.1650 oh         1 VMO      -0.660000
     10 H1         -62.7730    18.0980   -30.6060 h1         1 VMO       0.042700
     11 H2         -62.3270    20.4780   -31.3720 h1         1 VMO       0.036700
     12 H3         -60.5710    18.8140   -31.6560 h1         1 VMO       0.028700
     13 H4         -61.5990    17.3120   -34.0230 h1         1 VMO       0.063200
     14 H5         -61.2550    16.7310   -32.3850 h1         1 VMO       0.063200
     15 H6         -64.6700    19.8130   -30.3970 h1         1 VMO       0.024200
     16 H7         -65.3870    19.0980   -31.8510 h1         1 VMO       0.024200
     17 H8         -64.9550    16.3270   -32.3560 h1         1 VMO       0.033367
     18 H9         -63.6940    15.6110   -33.3760 h1         1 VMO       0.033367
     19 H10        -63.4640    15.6960   -31.6130 h1         1 VMO       0.033367
     20 H12        -63.6370    19.4050   -33.6460 ho         1 VMO       0.437000
     21 H13        -61.2320    20.1890   -33.9850 ho         1 VMO       0.443000
     22 H14        -66.2410    18.1640   -29.9270 ho         1 VMO       0.444000
     23 CAG        -63.8700    16.2270   -32.4850 c3         1 VMO       0.162100
@<TRIPOS>BOND
     1     1     2 1   
     2     1     5 1   
     3     1     6 1   
     4     1    10 1   
     5     2     3 1   
     6     2     7 1   
     7     2    11 1   
     8     3     4 1   
     9     3     8 1   
    10     3    12 1   
    11     4     6 1   
    12     4    13 1   
    13     4    14 1   
    14     5     9 1   
    15     5    15 1   
    16     5    16 1   
    17     6    23 1   
    18     7    20 1   
    19     8    21 1   
    20     9    22 1   
    21    17    23 1   
    22    18    23 1   
    23    19    23 1   
@<TRIPOS>SUBSTRUCTURE
     1 VMO         1 TEMP              0 ****  ****    0 ROOT
