@<TRIPOS>MOLECULE
VMP
   47    49     1     0     0
SMALL
No Charge or Current Charge


@<TRIPOS>ATOM
      1 C10         -4.4230    -0.7590    -0.8530 ca         1 VMP      -0.027000
      2 C11         -5.6240    -0.3990    -0.2140 ca         1 VMP      -0.051000
      3 C24         -6.8510    -0.9360    -0.6520 ca         1 VMP      -0.086000
      4 C26         -8.0490    -0.5740    -0.0120 ca         1 VMP      -0.108000
      5 C27         -8.0260     0.3250     1.0680 ca         1 VMP      -0.093000
      6 C25         -6.8040     0.8630     1.5090 ca         1 VMP      -0.105000
      7 C12         -5.6030     0.5030     0.8700 ca         1 VMP      -0.020000
      8 C13         -4.3780     1.0360     1.3050 ca         1 VMP      -0.101000
      9 C14         -3.1780     0.6770     0.6680 ca         1 VMP      -0.095000
     10 C9          -3.1830    -0.2280    -0.4240 ca         1 VMP      -0.166600
     11 C8          -1.9140    -0.6460    -1.1430 c          1 VMP       0.632700
     12 O8          -1.9410    -1.4280    -2.0820 o          1 VMP      -0.519100
     13 N2          -0.7470    -0.0940    -0.6780 ns         1 VMP      -0.491500
     14 C7           0.5350    -0.2690    -1.1040 c          1 VMP       0.668100
     15 O7           0.8670    -0.9840    -2.0340 o          1 VMP      -0.550100
     16 N1           1.4290     0.4700    -0.3810 ns         1 VMP      -0.524900
     17 C1           2.8770     0.3680    -0.5190 c6         1 VMP       0.310700
     18 O5           3.2680    -0.7760     0.2640 os         1 VMP      -0.461000
     19 C5           4.6880    -1.0850     0.2100 c6         1 VMP       0.179300
     20 C6           4.9380    -2.4080     1.0100 c3         1 VMP       0.172600
     21 O6           4.1540    -3.5230     0.5360 oh         1 VMP      -0.705000
     22 C4           5.5100     0.1150     0.7780 c6         1 VMP       0.142300
     23 O4           6.9310    -0.1070     0.6990 oh         1 VMP      -0.714000
     24 C3           5.1380     1.4060    -0.0080 c6         1 VMP       0.139300
     25 O3           5.8280     2.5480     0.5260 oh         1 VMP      -0.666000
     26 C2           3.6010     1.6430     0.0320 c6         1 VMP       0.099300
     27 O2           3.2730     2.8360    -0.7200 oh         1 VMP      -0.714000
     28 H10         -4.4570    -1.4560    -1.6880 ha         1 VMP       0.139000
     29 H24         -6.8790    -1.6320    -1.4880 ha         1 VMP       0.120000
     30 H26         -8.9940    -0.9900    -0.3520 ha         1 VMP       0.118000
     31 H27         -8.9530     0.6050     1.5640 ha         1 VMP       0.116000
     32 H25         -6.7930     1.5580     2.3460 ha         1 VMP       0.116000
     33 H13         -4.3530     1.7330     2.1410 ha         1 VMP       0.117000
     34 H14         -2.2560     1.1160     1.0390 ha         1 VMP       0.106000
     35 H2          -0.8600     0.5330     0.0980 hn         1 VMP       0.312500
     36 H1           1.0700     0.9990     0.4010 hn         1 VMP       0.307500
     37 HA           3.1400     0.2120    -1.5780 h2         1 VMP       0.092700
     38 HB           3.3010     1.7740     1.0830 h1         1 VMP       0.048700
     39 H5           4.9740    -1.2610    -0.8370 h1         1 VMP       0.068700
     40 H61C         6.0070    -2.6510     0.9450 h1         1 VMP       0.034700
     41 H62C         4.7140    -2.2140     2.0670 h1         1 VMP       0.034700
     42 H4           5.2180     0.2580     1.8300 h1         1 VMP       0.051700
     43 H6           4.3340    -4.2790     1.1420 ho         1 VMP       0.504000
     44 HC           7.3320     0.7920     0.7890 ho         1 VMP       0.525000
     45 H3           5.4260     1.2600    -1.0610 h1         1 VMP       0.059700
     46 HD           5.3060     3.3220     0.2080 ho         1 VMP       0.466000
     47 H2A          2.2890     2.8940    -0.7720 ho         1 VMP       0.515000
@<TRIPOS>BOND
     1     1     2 ar  
     2     1    10 ar  
     3     1    28 1   
     4     2     3 ar  
     5     2     7 ar  
     6     3     4 ar  
     7     3    29 1   
     8     4     5 ar  
     9     4    30 1   
    10     5     6 ar  
    11     5    31 1   
    12     6     7 ar  
    13     6    32 1   
    14     7     8 ar  
    15     8     9 ar  
    16     8    33 1   
    17     9    10 ar  
    18     9    34 1   
    19    10    11 1   
    20    11    12 2   
    21    11    13 1   
    22    13    14 1   
    23    13    35 1   
    24    14    15 2   
    25    14    16 1   
    26    16    17 1   
    27    16    36 1   
    28    17    18 1   
    29    17    26 1   
    30    17    37 1   
    31    18    19 1   
    32    19    20 1   
    33    19    22 1   
    34    19    39 1   
    35    20    21 1   
    36    20    40 1   
    37    20    41 1   
    38    21    43 1   
    39    22    23 1   
    40    22    24 1   
    41    22    42 1   
    42    23    44 1   
    43    24    25 1   
    44    24    26 1   
    45    24    45 1   
    46    25    46 1   
    47    26    27 1   
    48    26    38 1   
    49    27    47 1   
@<TRIPOS>SUBSTRUCTURE
     1 VMP         1 TEMP              0 ****  ****    0 ROOT
