@<TRIPOS>MOLECULE
VMP
   47    49     1     0     0
SMALL
abcg2


@<TRIPOS>ATOM
      1 C10         -4.3410    -0.7800    -0.7340 ca         1 VMP      -0.027000
      2 C11         -5.5840    -0.4380    -0.1630 ca         1 VMP      -0.051000
      3 C24         -6.7490    -1.2040    -0.4050 ca         1 VMP      -0.086000
      4 C26         -7.9420    -0.8500     0.1610 ca         1 VMP      -0.108000
      5 C27         -8.0260     0.2870     0.9940 ca         1 VMP      -0.093000
      6 C25         -6.9170     1.0480     1.2440 ca         1 VMP      -0.105000
      7 C12         -5.6700     0.7050     0.6730 ca         1 VMP      -0.020000
      8 C13         -4.5010     1.4670     0.9040 ca         1 VMP      -0.101000
      9 C14         -3.3070     1.1080     0.3480 ca         1 VMP      -0.095000
     10 C9          -3.2130    -0.0380    -0.4800 ca         1 VMP      -0.166600
     11 C8          -1.9390    -0.4710    -1.1270 c          1 VMP       0.632700
     12 O8          -1.9300    -1.1660    -2.1180 o          1 VMP      -0.519100
     13 N2          -0.8000    -0.0350    -0.4900 ns         1 VMP      -0.491500
     14 C7           0.5080    -0.1840    -0.9470 c          1 VMP       0.668100
     15 O7           0.7950    -0.6560    -2.0230 o          1 VMP      -0.550100
     16 N1           1.4170     0.2970    -0.0560 ns         1 VMP      -0.524900
     17 C1           2.8230     0.2290    -0.2820 c6         1 VMP       0.310700
     18 O5           3.3330    -0.9010     0.3840 os         1 VMP      -0.461000
     19 C5           4.7110    -1.1150     0.1570 c6         1 VMP       0.179300
     20 C6           5.0970    -2.4090     0.8430 c3         1 VMP       0.172600
     21 O6           4.3970    -3.4700     0.2390 oh         1 VMP      -0.705000
     22 C4           5.5140     0.0730     0.6910 c6         1 VMP       0.142300
     23 O4           6.8700    -0.1470     0.3940 oh         1 VMP      -0.714000
     24 C3           5.0100     1.3610     0.0510 c6         1 VMP       0.139300
     25 O3           5.7120     2.4290     0.6390 oh         1 VMP      -0.666000
     26 C2           3.5050     1.4980     0.2340 c6         1 VMP       0.099300
     27 O2           3.0890     2.6310    -0.4820 oh         1 VMP      -0.714000
     28 H10         -4.2850    -1.6520    -1.3740 ha         1 VMP       0.139000
     29 H24         -6.6830    -2.0760    -1.0450 ha         1 VMP       0.120000
     30 H26         -8.8290    -1.4400    -0.0280 ha         1 VMP       0.118000
     31 H27         -8.9770     0.5550     1.4350 ha         1 VMP       0.116000
     32 H25         -6.9820     1.9190     1.8830 ha         1 VMP       0.116000
     33 H13         -4.5610     2.3510     1.5270 ha         1 VMP       0.117000
     34 H14         -2.4450     1.7380     0.5300 ha         1 VMP       0.106000
     35 H2          -0.9220     0.4250     0.3990 hn         1 VMP       0.312500
     36 H1           1.1140     0.5640     0.8690 hn         1 VMP       0.307500
     37 HA           2.9940     0.1460    -1.3630 h2         1 VMP       0.092700
     38 HB           3.2880     1.5980     1.3100 h1         1 VMP       0.048700
     39 H5           4.9040    -1.2110    -0.9240 h1         1 VMP       0.068700
     40 H61C         6.1810    -2.5350     0.7550 h1         1 VMP       0.034700
     41 H62C         4.8680    -2.3230     1.9140 h1         1 VMP       0.034700
     42 H4           5.3510     0.1390     1.7790 h1         1 VMP       0.051700
     43 H6           4.6840    -4.2880     0.6540 ho         1 VMP       0.504000
     44 HC           7.3730     0.6070     0.7190 ho         1 VMP       0.525000
     45 H3           5.2180     1.3040    -1.0300 h1         1 VMP       0.059700
     46 HD           5.5530     3.2240     0.1210 ho         1 VMP       0.466000
     47 H2A          2.1770     2.8300    -0.2500 ho         1 VMP       0.515000
@<TRIPOS>BOND
     1     1     2 ar  
     2     1    10 ar  
     3     1    28 1   
     4     2     3 ar  
     5     2     7 ar  
     6     3     4 ar  
     7     3    29 1   
     8     4     5 ar  
     9     4    30 1   
    10     5     6 ar  
    11     5    31 1   
    12     6     7 ar  
    13     6    32 1   
    14     7     8 ar  
    15     8     9 ar  
    16     8    33 1   
    17     9    10 ar  
    18     9    34 1   
    19    10    11 1   
    20    11    12 2   
    21    11    13 1   
    22    13    14 1   
    23    13    35 1   
    24    14    15 2   
    25    14    16 1   
    26    16    17 1   
    27    16    36 1   
    28    17    18 1   
    29    17    26 1   
    30    17    37 1   
    31    18    19 1   
    32    19    20 1   
    33    19    22 1   
    34    19    39 1   
    35    20    21 1   
    36    20    40 1   
    37    20    41 1   
    38    21    43 1   
    39    22    23 1   
    40    22    24 1   
    41    22    42 1   
    42    23    44 1   
    43    24    25 1   
    44    24    26 1   
    45    24    45 1   
    46    25    46 1   
    47    26    27 1   
    48    26    38 1   
    49    27    47 1   
@<TRIPOS>SUBSTRUCTURE
     1 VMP         1 TEMP              0 ****  ****    0 ROOT
