@<TRIPOS>MOLECULE
VMQ
   57    59     1     0     0
SMALL
No Charge or Current Charge


@<TRIPOS>ATOM
      1 C1           5.2000   -19.9230    21.3660 c3         1 VMQ       0.087800
      2 C10         12.3920   -18.3800    20.7860 ca         1 VMQ      -0.188600
      3 C11         12.7280   -19.6110    21.3610 ca         1 VMQ       0.360900
      4 C13         14.8000   -19.5930    20.3240 ca         1 VMQ       0.351900
      5 C14         14.5280   -18.3650    19.6970 ca         1 VMQ      -0.158000
      6 C15         13.2890   -17.7210    19.9060 cp         1 VMQ       0.041000
      7 C16         12.9560   -16.4620    19.1720 cp         1 VMQ      -0.017000
      8 C17         13.7970   -15.3290    19.2500 ca         1 VMQ      -0.092500
      9 C18         13.4810   -14.1450    18.5590 ca         1 VMQ      -0.058000
     10 C19         12.3200   -14.0670    17.7620 ca         1 VMQ      -0.180300
     11 C20         11.4890   -15.2030    17.6570 ca         1 VMQ      -0.058000
     12 C21         11.8030   -16.3800    18.3540 ca         1 VMQ      -0.092500
     13 C22         11.9940   -12.7690    17.0170 c3         1 VMQ       0.342300
     14 C26          8.3260   -17.0210    19.7970 ca         1 VMQ      -0.121300
     15 C27          8.3500   -15.6270    19.9820 ca         1 VMQ      -0.016000
     16 C28          8.1290   -14.7510    18.9020 ca         1 VMQ      -0.201300
     17 C29          7.8770   -15.2880    17.6210 ca         1 VMQ      -0.010000
     18 C3           5.7340   -17.4580    21.6260 c3         1 VMQ       0.087800
     19 C30          7.8550   -16.6840    17.4180 ca         1 VMQ      -0.201300
     20 C31          8.0900   -17.5440    18.5110 ca         1 VMQ      -0.016000
     21 C32          7.6190   -17.2550    16.0170 c3         1 VMQ       0.347300
     22 C36          8.1920   -13.2410    19.1420 c3         1 VMQ       0.347300
     23 C4           7.5630   -19.1270    21.0640 c          1 VMQ       0.585100
     24 C6           8.5950   -17.9530    20.9820 c3         1 VMQ       0.085000
     25 F23         12.0720   -11.6920    17.8320 f          1 VMQ      -0.111333
     26 F24         12.8570   -12.5560    15.9980 f          1 VMQ      -0.111333
     27 F25         10.7490   -12.7620    16.4850 f          1 VMQ      -0.111333
     28 F33          7.0770   -18.4940    16.0460 f          1 VMQ      -0.106667
     29 F34          6.7810   -16.4860    15.2840 f          1 VMQ      -0.106667
     30 F35          8.7770   -17.3460    15.3260 f          1 VMQ      -0.106667
     31 F37          9.4270   -12.8570    19.5360 f          1 VMQ      -0.106667
     32 F38          7.8880   -12.5120    18.0430 f          1 VMQ      -0.106667
     33 F39          7.3320   -12.8580    20.1120 f          1 VMQ      -0.106667
     34 N12         13.9170   -20.2170    21.1390 nb         1 VMQ      -0.658000
     35 N2           6.2030   -18.8330    21.3330 n          1 VMQ      -0.394800
     36 N7           9.9760   -18.4680    20.8950 ns         1 VMQ      -0.501900
     37 O5           7.9140   -20.2880    20.8690 o          1 VMQ      -0.612100
     38 O9          11.0410   -16.5570    21.5110 o          1 VMQ      -0.590100
     39 H1           4.1820   -19.5150    21.4150 h1         1 VMQ       0.049033
     40 H2           5.2850   -20.5350    20.4590 h1         1 VMQ       0.049033
     41 H3           5.3730   -20.5560    22.2450 h1         1 VMQ       0.049033
     42 H4          12.0430   -20.1210    22.0380 h4         1 VMQ       0.028100
     43 H5          15.7500   -20.0990    20.1600 h4         1 VMQ       0.027100
     44 H6          15.2690   -17.9300    19.0330 ha         1 VMQ       0.133000
     45 H7          14.6940   -15.3660    19.8620 ha         1 VMQ       0.123500
     46 H8          14.1440   -13.2860    18.6460 ha         1 VMQ       0.131500
     47 H9          10.5990   -15.1850    17.0340 ha         1 VMQ       0.131500
     48 H10         11.1490   -17.2430    18.2550 ha         1 VMQ       0.123500
     49 H11          8.5570   -15.2200    20.9710 ha         1 VMQ       0.148000
     50 H12          7.7160   -14.6230    16.7740 ha         1 VMQ       0.151000
     51 H13          4.7070   -17.4750    22.0120 h1         1 VMQ       0.049033
     52 H14          6.3740   -16.9890    22.3840 h1         1 VMQ       0.049033
     53 H15          5.7510   -16.8550    20.7090 h1         1 VMQ       0.049033
     54 H16          8.1000   -18.6230    18.3610 ha         1 VMQ       0.148000
     55 H17          8.5030   -17.3910    21.9200 h1         1 VMQ       0.094700
     56 H18         10.1100   -19.4200    20.5700 hn         1 VMQ       0.351500
     57 C8          11.1000   -17.7040    21.0920 c          1 VMQ       0.618700
@<TRIPOS>BOND
     1     1    35 1   
     2     1    39 1   
     3     1    40 1   
     4     1    41 1   
     5     2     3 ar  
     6     2     6 ar  
     7     2    57 1   
     8     3    34 ar  
     9     3    42 1   
    10     4     5 ar  
    11     4    34 ar  
    12     4    43 1   
    13     5     6 ar  
    14     5    44 1   
    15     6     7 1   
    16     7     8 ar  
    17     7    12 ar  
    18     8     9 ar  
    19     8    45 1   
    20     9    10 ar  
    21     9    46 1   
    22    10    11 ar  
    23    10    13 1   
    24    11    12 ar  
    25    11    47 1   
    26    12    48 1   
    27    13    25 1   
    28    13    26 1   
    29    13    27 1   
    30    14    15 ar  
    31    14    20 ar  
    32    14    24 1   
    33    15    16 ar  
    34    15    49 1   
    35    16    17 ar  
    36    16    22 1   
    37    17    19 ar  
    38    17    50 1   
    39    18    35 1   
    40    18    51 1   
    41    18    52 1   
    42    18    53 1   
    43    19    20 ar  
    44    19    21 1   
    45    20    54 1   
    46    21    28 1   
    47    21    29 1   
    48    21    30 1   
    49    22    31 1   
    50    22    32 1   
    51    22    33 1   
    52    23    24 1   
    53    23    35 1   
    54    23    37 2   
    55    24    36 1   
    56    24    55 1   
    57    36    56 1   
    58    36    57 1   
    59    38    57 2   
@<TRIPOS>SUBSTRUCTURE
     1 VMQ         1 TEMP              0 ****  ****    0 ROOT
