@<TRIPOS>MOLECULE
VMQ
   57    59     1     0     0
SMALL
abcg2


@<TRIPOS>ATOM
      1 C1           5.4140   -19.8370    21.5240 c3         1 VMQ       0.087800
      2 C10         12.3160   -18.4130    20.6820 ca         1 VMQ      -0.188600
      3 C11         12.6220   -19.6340    21.2750 ca         1 VMQ       0.360900
      4 C13         14.7000   -19.6760    20.3390 ca         1 VMQ       0.351900
      5 C14         14.4920   -18.4600    19.7010 ca         1 VMQ      -0.158000
      6 C15         13.2740   -17.8060    19.8560 cp         1 VMQ       0.041000
      7 C16         12.9990   -16.5320    19.1530 cp         1 VMQ      -0.017000
      8 C17         13.8430   -15.4350    19.3230 ca         1 VMQ      -0.092500
      9 C18         13.5530   -14.2240    18.7110 ca         1 VMQ      -0.058000
     10 C19         12.4210   -14.1120    17.9080 ca         1 VMQ      -0.180300
     11 C20         11.5930   -15.2110    17.7000 ca         1 VMQ      -0.058000
     12 C21         11.8810   -16.4140    18.3240 ca         1 VMQ      -0.092500
     13 C22         12.1220   -12.8090    17.2290 c3         1 VMQ       0.342300
     14 C26          8.2770   -16.9410    19.7030 ca         1 VMQ      -0.121300
     15 C27          8.1910   -15.5640    19.8560 ca         1 VMQ      -0.016000
     16 C28          7.9420   -14.7560    18.7500 ca         1 VMQ      -0.201300
     17 C29          7.7760   -15.3090    17.4900 ca         1 VMQ      -0.010000
     18 C3           5.9450   -17.4050    21.8950 c3         1 VMQ       0.087800
     19 C30          7.8710   -16.6910    17.3430 ca         1 VMQ      -0.201300
     20 C31          8.1200   -17.5020    18.4380 ca         1 VMQ      -0.016000
     21 C32          7.6980   -17.2840    15.9720 c3         1 VMQ       0.347300
     22 C36          7.8040   -13.2690    18.9290 c3         1 VMQ       0.347300
     23 C4           7.5910   -19.0050    20.9850 c          1 VMQ       0.585100
     24 C6           8.5920   -17.8430    20.8870 c3         1 VMQ       0.085000
     25 F23         12.4780   -11.7430    17.9820 f          1 VMQ      -0.111333
     26 F24         12.7920   -12.6800    16.0540 f          1 VMQ      -0.111333
     27 F25         10.8130   -12.6640    16.9390 f          1 VMQ      -0.111333
     28 F33          7.9210   -18.6110    15.9480 f          1 VMQ      -0.106667
     29 F34          6.4480   -17.0880    15.4910 f          1 VMQ      -0.106667
     30 F35          8.5420   -16.7270    15.0720 f          1 VMQ      -0.106667
     31 F37          8.6010   -12.7970    19.9100 f          1 VMQ      -0.106667
     32 F38          8.1050   -12.5840    17.8080 f          1 VMQ      -0.106667
     33 F39          6.5370   -12.9210    19.2640 f          1 VMQ      -0.106667
     34 N12         13.7870   -20.2650    21.1150 nb         1 VMQ      -0.658000
     35 N2           6.3950   -18.7520    21.5400 n          1 VMQ      -0.394800
     36 N7           9.9090   -18.4230    20.7280 ns         1 VMQ      -0.501900
     37 O5           7.9070   -20.1160    20.5550 o          1 VMQ      -0.612100
     38 O9          10.9990   -16.5680    21.4200 o          1 VMQ      -0.590100
     39 H1           4.5310   -19.5170    22.0700 h1         1 VMQ       0.049033
     40 H2           5.1230   -20.0880    20.5020 h1         1 VMQ       0.049033
     41 H3           5.8310   -20.7260    21.9950 h1         1 VMQ       0.049033
     42 H4          11.8960   -20.1130    21.9240 h4         1 VMQ       0.028100
     43 H5          15.6410   -20.2010    20.2160 h4         1 VMQ       0.027100
     44 H6          15.2630   -18.0440    19.0660 ha         1 VMQ       0.133000
     45 H7          14.7100   -15.5220    19.9640 ha         1 VMQ       0.123500
     46 H8          14.1970   -13.3720    18.8710 ha         1 VMQ       0.131500
     47 H9          10.7220   -15.1240    17.0660 ha         1 VMQ       0.131500
     48 H10         11.2300   -17.2650    18.1760 ha         1 VMQ       0.123500
     49 H11          8.3220   -15.1260    20.8360 ha         1 VMQ       0.148000
     50 H12          7.5900   -14.6770    16.6330 ha         1 VMQ       0.151000
     51 H13          4.9950   -17.4880    22.4140 h1         1 VMQ       0.049033
     52 H14          6.6540   -16.9150    22.5610 h1         1 VMQ       0.049033
     53 H15          5.8070   -16.7790    21.0120 h1         1 VMQ       0.049033
     54 H16          8.2010   -18.5730    18.3110 ha         1 VMQ       0.148000
     55 H17          8.5790   -17.2580    21.8050 h1         1 VMQ       0.094700
     56 H18          9.9400   -19.3840    20.4150 hn         1 VMQ       0.351500
     57 C8          11.0240   -17.7170    20.9840 c          1 VMQ       0.618700
@<TRIPOS>BOND
     1     1    35 1   
     2     1    39 1   
     3     1    40 1   
     4     1    41 1   
     5     2     3 ar  
     6     2     6 ar  
     7     2    57 1   
     8     3    34 ar  
     9     3    42 1   
    10     4     5 ar  
    11     4    34 ar  
    12     4    43 1   
    13     5     6 ar  
    14     5    44 1   
    15     6     7 1   
    16     7     8 ar  
    17     7    12 ar  
    18     8     9 ar  
    19     8    45 1   
    20     9    10 ar  
    21     9    46 1   
    22    10    11 ar  
    23    10    13 1   
    24    11    12 ar  
    25    11    47 1   
    26    12    48 1   
    27    13    25 1   
    28    13    26 1   
    29    13    27 1   
    30    14    15 ar  
    31    14    20 ar  
    32    14    24 1   
    33    15    16 ar  
    34    15    49 1   
    35    16    17 ar  
    36    16    22 1   
    37    17    19 ar  
    38    17    50 1   
    39    18    35 1   
    40    18    51 1   
    41    18    52 1   
    42    18    53 1   
    43    19    20 ar  
    44    19    21 1   
    45    20    54 1   
    46    21    28 1   
    47    21    29 1   
    48    21    30 1   
    49    22    31 1   
    50    22    32 1   
    51    22    33 1   
    52    23    24 1   
    53    23    35 1   
    54    23    37 2   
    55    24    36 1   
    56    24    55 1   
    57    36    56 1   
    58    36    57 1   
    59    38    57 2   
@<TRIPOS>SUBSTRUCTURE
     1 VMQ         1 TEMP              0 ****  ****    0 ROOT
