@<TRIPOS>MOLECULE
VMR
   35    37     1     0     0
SMALL
No Charge or Current Charge


@<TRIPOS>ATOM
      1 C1         -35.5050   -25.1540    22.9350 ca         1 VMR      -0.065300
      2 C2         -35.6650   -24.6710    24.3910 c5         1 VMR      -0.025400
      3 C3         -34.8520   -26.3830    22.6990 ca         1 VMR      -0.117000
      4 C12        -35.1620   -26.1400    20.2970 ca         1 VMR      -0.142000
      5 C14        -33.1600   -28.3190    20.1820 ca         1 VMR       0.123100
      6 C15        -33.1470   -29.5910    19.5850 ca         1 VMR      -0.138500
      7 C16        -32.2610   -27.3270    19.7420 ca         1 VMR      -0.138500
      8 C17        -32.2530   -29.8690    18.5350 ca         1 VMR      -0.076500
      9 C18        -31.3670   -27.6050    18.6920 ca         1 VMR      -0.076500
     10 C19        -31.3660   -28.8750    18.0890 ca         1 VMR       0.099000
     11 C4         -35.9830   -24.4270    21.8190 ca         1 VMR      -0.110000
     12 C5         -35.1470   -23.2120    24.5190 c5         1 VMR      -0.174700
     13 C6         -37.1960   -24.5490    24.7290 c5         1 VMR       0.231800
     14 C7         -34.6700   -26.8690    21.3940 ca         1 VMR       0.105100
     15 C8         -35.8150   -24.9170    20.5120 ca         1 VMR      -0.092000
     16 C9         -36.4090   -22.4170    24.4550 c2         1 VMR       0.622200
     17 N10        -37.5450   -23.1410    24.3760 nu         1 VMR      -0.932400
     18 O11        -34.0360   -28.0790    21.2170 os         1 VMR      -0.258200
     19 N13        -36.5260   -21.1650    24.5890 n2         1 VMR      -0.849100
     20 Cl20       -30.2470   -29.2220    16.7770 cl         1 VMR      -0.210000
     21 H1         -35.1600   -25.3420    25.0970 hc         1 VMR       0.066700
     22 H2         -34.4740   -26.9680    23.5340 ha         1 VMR       0.127000
     23 H3         -35.0440   -26.5200    19.2850 ha         1 VMR       0.129000
     24 H4         -33.8330   -30.3600    19.9340 ha         1 VMR       0.133000
     25 H5         -32.2510   -26.3470    20.2130 ha         1 VMR       0.133000
     26 H6         -32.2460   -30.8520    18.0690 ha         1 VMR       0.132500
     27 H7         -30.6740   -26.8410    18.3480 ha         1 VMR       0.132500
     28 H8         -36.4940   -23.4780    21.9510 ha         1 VMR       0.132000
     29 H9         -34.6480   -23.0490    25.4800 hc         1 VMR       0.068200
     30 H10        -34.4420   -22.9330    23.7290 hc         1 VMR       0.068200
     31 H11        -37.8010   -25.2890    24.1870 h1         1 VMR       0.047200
     32 H12        -37.3530   -24.7270    25.8030 h1         1 VMR       0.047200
     33 H13        -36.1950   -24.3480    19.6660 ha         1 VMR       0.120000
     34 H14        -38.3410   -22.6810    24.8120 hn         1 VMR       0.506000
     35 H15        -35.5830   -20.7650    24.6910 hn         1 VMR       0.382400
@<TRIPOS>BOND
     1     1     2 1   
     2     1     3 ar  
     3     1    11 ar  
     4     2    12 1   
     5     2    13 1   
     6     2    21 1   
     7     3    14 ar  
     8     3    22 1   
     9     4    14 ar  
    10     4    15 ar  
    11     4    23 1   
    12     5     6 ar  
    13     5     7 ar  
    14     5    18 1   
    15     6     8 ar  
    16     6    24 1   
    17     7     9 ar  
    18     7    25 1   
    19     8    10 ar  
    20     8    26 1   
    21     9    10 ar  
    22     9    27 1   
    23    10    20 1   
    24    11    15 ar  
    25    11    28 1   
    26    12    16 1   
    27    12    29 1   
    28    12    30 1   
    29    13    17 1   
    30    13    31 1   
    31    13    32 1   
    32    14    18 1   
    33    15    33 1   
    34    16    17 1   
    35    16    19 2   
    36    17    34 1   
    37    19    35 1   
@<TRIPOS>SUBSTRUCTURE
     1 VMR         1 TEMP              0 ****  ****    0 ROOT
