@<TRIPOS>MOLECULE
VMR
   35    37     1     0     0
SMALL
abcg2


@<TRIPOS>ATOM
      1 C1         -35.7400   -25.3370    22.9100 ca         1 VMR      -0.065300
      2 C2         -35.8340   -24.8110    24.3240 c5         1 VMR      -0.025400
      3 C3         -34.9760   -26.4750    22.6570 ca         1 VMR      -0.117000
      4 C12        -35.4600   -26.3250    20.2920 ca         1 VMR      -0.142000
      5 C14        -33.1890   -28.2270    20.1990 ca         1 VMR       0.123100
      6 C15        -33.0000   -29.4780    19.6230 ca         1 VMR      -0.138500
      7 C16        -32.4000   -27.1460    19.8150 ca         1 VMR      -0.138500
      8 C17        -32.0200   -29.6550    18.6560 ca         1 VMR      -0.076500
      9 C18        -31.4240   -27.3190    18.8430 ca         1 VMR      -0.076500
     10 C19        -31.2420   -28.5720    18.2720 ca         1 VMR       0.099000
     11 C4         -36.3590   -24.6940    21.8340 ca         1 VMR      -0.110000
     12 C5         -34.9910   -23.5280    24.5220 c5         1 VMR      -0.174700
     13 C6         -37.2520   -24.3470    24.7250 c5         1 VMR       0.231800
     14 C7         -34.8410   -26.9580    21.3630 ca         1 VMR       0.105100
     15 C8         -36.2170   -25.1870    20.5420 ca         1 VMR      -0.092000
     16 C9         -35.9780   -22.3840    24.3870 c2         1 VMR       0.622200
     17 N10        -37.2230   -22.9180    24.4530 nu         1 VMR      -0.932400
     18 O11        -34.1330   -28.1360    21.1950 os         1 VMR      -0.258200
     19 N13        -35.7420   -21.1280    24.2480 n2         1 VMR      -0.849100
     20 CL20       -30.0100   -28.7870    17.0430 cl         1 VMR      -0.210000
     21 H1         -35.4960   -25.5940    25.0000 hc         1 VMR       0.066700
     22 H2         -34.4810   -26.9970    23.4660 ha         1 VMR       0.127000
     23 H3         -35.3520   -26.7160    19.2890 ha         1 VMR       0.129000
     24 H4         -33.6220   -30.3070    19.9360 ha         1 VMR       0.133000
     25 H5         -32.5440   -26.1750    20.2680 ha         1 VMR       0.133000
     26 H6         -31.8690   -30.6250    18.2030 ha         1 VMR       0.132500
     27 H7         -30.8060   -26.4850    18.5380 ha         1 VMR       0.132500
     28 H8         -36.9580   -23.8090    22.0040 ha         1 VMR       0.132000
     29 H9         -34.5690   -23.4950    25.5290 hc         1 VMR       0.068200
     30 H10        -34.1720   -23.4370    23.8110 hc         1 VMR       0.068200
     31 H11        -38.0300   -24.8410    24.1420 h1         1 VMR       0.047200
     32 H12        -37.4380   -24.5480    25.7850 h1         1 VMR       0.047200
     33 H13        -36.7080   -24.6840    19.7180 ha         1 VMR       0.120000
     34 H14        -38.0390   -22.3340    24.5450 hn         1 VMR       0.506000
     35 H15        -34.7380   -20.9730    24.1990 hn         1 VMR       0.382400
@<TRIPOS>BOND
     1     1     2 1   
     2     1     3 ar  
     3     1    11 ar  
     4     2    12 1   
     5     2    13 1   
     6     2    21 1   
     7     3    14 ar  
     8     3    22 1   
     9     4    14 ar  
    10     4    15 ar  
    11     4    23 1   
    12     5     6 ar  
    13     5     7 ar  
    14     5    18 1   
    15     6     8 ar  
    16     6    24 1   
    17     7     9 ar  
    18     7    25 1   
    19     8    10 ar  
    20     8    26 1   
    21     9    10 ar  
    22     9    27 1   
    23    10    20 1   
    24    11    15 ar  
    25    11    28 1   
    26    12    16 1   
    27    12    29 1   
    28    12    30 1   
    29    13    17 1   
    30    13    31 1   
    31    13    32 1   
    32    14    18 1   
    33    15    33 1   
    34    16    17 1   
    35    16    19 2   
    36    17    34 1   
    37    19    35 1   
@<TRIPOS>SUBSTRUCTURE
     1 VMR         1 TEMP              0 ****  ****    0 ROOT
