@<TRIPOS>MOLECULE
VMS
   53    55     1     0     0
SMALL
bcc


@<TRIPOS>ATOM
      1 CG2          4.9460    -2.7850    -0.1730 c3         1 VMS      -0.093100
      2 CB           3.5720    -3.1990     0.3470 c3         1 VMS      -0.092700
      3 CG1          3.6980    -4.3430     1.3460 c3         1 VMS      -0.093100
      4 CA           2.8440    -2.0060     0.9930 c3         1 VMS       0.092500
      5 N            1.5100    -2.2610     1.5060 n8         1 VMS      -0.906800
      6 C            2.6990    -0.8850    -0.0220 c          1 VMS       0.700100
      7 O            2.0350    -0.9830    -1.0260 o          1 VMS      -0.515100
      8 NAS          3.3730     0.2750     0.2980 ns         1 VMS      -0.690300
      9 SBD          3.4430     1.6120    -0.6900 s6         1 VMS       1.580100
     10 OAZ          4.2100     2.5800     0.0510 o          1 VMS      -0.607800
     11 OBC          3.8080     1.2300    -2.0250 o          1 VMS      -0.607800
     12 O5           1.9310     2.0660    -0.8030 os         1 VMS      -0.517500
     13 C5           1.2540     2.5540     0.3700 c3         1 VMS       0.159400
     14 C4          -0.1250     2.9860    -0.0800 c5         1 VMS       0.148100
     15 O4          -0.8220     1.8940    -0.6730 os         1 VMS      -0.375600
     16 C3          -0.9790     3.4580     1.0950 c5         1 VMS       0.085100
     17 O3          -1.8730     4.4280     0.6240 oh         1 VMS      -0.576800
     18 C2          -1.7140     2.1650     1.4650 c5         1 VMS       0.057100
     19 O2          -2.9260     2.3460     2.1280 oh         1 VMS      -0.566800
     20 C1          -1.9590     1.5660     0.0820 c5         1 VMS       0.261800
     21 N9          -2.1380     0.1410     0.0770 na         1 VMS      -0.258000
     22 C8          -1.2550    -0.8110     0.5150 cc         1 VMS       0.421700
     23 N7          -1.6800    -2.0250     0.3400 nd         1 VMS      -0.565100
     24 C7          -2.9120    -1.8770    -0.2470 ca         1 VMS      -0.230200
     25 C9          -3.2140    -0.5370    -0.4250 ca         1 VMS       0.473800
     26 N3          -4.3210    -0.0410    -0.9700 nb         1 VMS      -0.742000
     27 C10         -5.1530    -0.9980    -1.3430 ca         1 VMS       0.709900
     28 N1          -5.0030    -2.3140    -1.2310 nb         1 VMS      -0.828000
     29 C6          -3.8820    -2.7980    -0.6820 ca         1 VMS       0.779200
     30 N6          -3.7280    -4.1170    -0.5680 nv         1 VMS      -0.957500
     31 HG21         4.8890    -2.0310    -0.9600 hc         1 VMS       0.039200
     32 HG22         5.5640    -2.3810     0.6330 hc         1 VMS       0.039200
     33 HG23         5.4730    -3.6430    -0.5920 hc         1 VMS       0.039200
     34 HB           2.9640    -3.5410    -0.4990 hc         1 VMS       0.071700
     35 HG11         4.2710    -4.0350     2.2240 hc         1 VMS       0.039200
     36 HG12         2.7270    -4.7030     1.6860 hc         1 VMS       0.039200
     37 HG13         4.2170    -5.1900     0.8950 hc         1 VMS       0.039200
     38 HA           3.4530    -1.6600     1.8340 h1         1 VMS       0.059700
     39 H            0.9530    -2.7670     0.8280 hn         1 VMS       0.366300
     40 H2           1.5610    -2.8400     2.3340 hn         1 VMS       0.366300
     41 HAS          3.8770     0.3490     1.1740 hn         1 VMS       0.344500
     42 H5'1         1.2090     1.7650     1.1270 h1         1 VMS       0.053200
     43 H5'2         1.7860     3.4110     0.7850 h1         1 VMS       0.053200
     44 H4          -0.0180     3.7850    -0.8200 h1         1 VMS       0.111700
     45 H3          -0.3680     3.8350     1.9260 h1         1 VMS       0.052700
     46 HO3         -2.5960     4.5040     1.2580 ho         1 VMS       0.427000
     47 H1          -1.0330     1.5190     2.0340 h1         1 VMS       0.049700
     48 H6          -2.7590     2.4130     3.0730 ho         1 VMS       0.416000
     49 H9          -2.8690     1.9880    -0.3560 h2         1 VMS       0.124700
     50 H8          -0.3020    -0.5610     0.9580 h5         1 VMS       0.075800
     51 H7          -6.0820    -0.6720    -1.7990 h5         1 VMS       0.046100
     52 HN61        -2.8980    -4.5120    -0.1630 hn         1 VMS       0.450300
     53 HN62        -4.4470    -4.7430    -0.8890 hn         1 VMS       0.450300
@<TRIPOS>BOND
     1     1     2 1   
     2     1    31 1   
     3     1    32 1   
     4     1    33 1   
     5     2     3 1   
     6     2     4 1   
     7     2    34 1   
     8     3    35 1   
     9     3    36 1   
    10     3    37 1   
    11     4     5 1   
    12     4     6 1   
    13     4    38 1   
    14     5    39 1   
    15     5    40 1   
    16     6     7 2   
    17     6     8 1   
    18     8     9 1   
    19     8    41 1   
    20     9    10 2   
    21     9    11 2   
    22     9    12 1   
    23    12    13 1   
    24    13    14 1   
    25    13    42 1   
    26    13    43 1   
    27    14    15 1   
    28    14    16 1   
    29    14    44 1   
    30    15    20 1   
    31    16    17 1   
    32    16    18 1   
    33    16    45 1   
    34    17    46 1   
    35    18    19 1   
    36    18    20 1   
    37    18    47 1   
    38    19    48 1   
    39    20    21 1   
    40    20    49 1   
    41    21    22 1   
    42    21    25 1   
    43    22    23 2   
    44    22    50 1   
    45    23    24 1   
    46    24    25 ar  
    47    24    29 ar  
    48    25    26 ar  
    49    26    27 ar  
    50    27    28 ar  
    51    27    51 1   
    52    28    29 ar  
    53    29    30 1   
    54    30    52 1   
    55    30    53 1   
@<TRIPOS>SUBSTRUCTURE
     1 VMS         1 TEMP              0 ****  ****    0 ROOT
