@<TRIPOS>MOLECULE
VMS
   53    55     1     0     0
SMALL
No Charge or Current Charge


@<TRIPOS>ATOM
      1 CG2          4.6470    -3.0190    -0.4320 c3         1 VMS      -0.093100
      2 CB           3.3240    -3.2180     0.3540 c3         1 VMS      -0.092700
      3 CG1          3.5400    -4.2600     1.4850 c3         1 VMS      -0.093100
      4 CA           2.7400    -1.8660     0.8810 c3         1 VMS       0.092500
      5 N            1.4680    -2.1000     1.6410 n8         1 VMS      -0.906800
      6 C            2.6320    -0.7720    -0.2490 c          1 VMS       0.700100
      7 O            1.9900    -0.9490    -1.2740 o          1 VMS      -0.515100
      8 NAS          3.2960     0.3790     0.0140 ns         1 VMS      -0.690300
      9 SBD          3.4200     1.7050    -0.9560 s6         1 VMS       1.580100
     10 OAZ          4.1840     2.7100    -0.2110 o          1 VMS      -0.607800
     11 OBC          3.8370     1.2720    -2.2940 o          1 VMS      -0.607800
     12 O5           1.8390     2.1460    -1.0050 os         1 VMS      -0.517500
     13 C5           1.2620     2.6690     0.2070 c3         1 VMS       0.159400
     14 C4          -0.2250     3.0160    -0.0730 c5         1 VMS       0.148100
     15 O4          -0.9300     1.8200    -0.5140 os         1 VMS      -0.375600
     16 C3          -1.0070     3.5250     1.1860 c5         1 VMS       0.085100
     17 O3          -2.1120     4.3670     0.8280 oh         1 VMS      -0.576800
     18 C2          -1.4870     2.1630     1.7640 c5         1 VMS       0.057100
     19 O2          -2.5180     2.3070     2.7510 oh         1 VMS      -0.566800
     20 C1          -1.9650     1.4950     0.4390 c5         1 VMS       0.261800
     21 N9          -2.1930     0.0540     0.4360 na         1 VMS      -0.258000
     22 C8          -1.6590    -0.8740     1.3360 cc         1 VMS       0.421700
     23 N7          -2.0830    -2.1250     1.0660 nd         1 VMS      -0.565100
     24 C7          -2.9220    -1.9290    -0.0430 ca         1 VMS      -0.230200
     25 C9          -2.9940    -0.6270    -0.4260 ca         1 VMS       0.473800
     26 N3          -3.7450    -0.2140    -1.4550 nb         1 VMS      -0.742000
     27 C10         -4.4240    -1.1770    -2.1110 ca         1 VMS       0.709900
     28 N1          -4.4200    -2.4920    -1.8230 nb         1 VMS      -0.828000
     29 C6          -3.6740    -2.8360    -0.7910 ca         1 VMS       0.779200
     30 N6          -3.7080    -4.1460    -0.5510 nv         1 VMS      -0.957500
     31 HG21         4.4970    -2.3970    -1.3230 hc         1 VMS       0.039200
     32 HG22         5.4080    -2.5420     0.1980 hc         1 VMS       0.039200
     33 HG23         5.0440    -3.9830    -0.7730 hc         1 VMS       0.039200
     34 HB           2.5970    -3.6460    -0.3490 hc         1 VMS       0.071700
     35 HG11         4.2150    -3.8670     2.2550 hc         1 VMS       0.039200
     36 HG12         2.5940    -4.5390     1.9630 hc         1 VMS       0.039200
     37 HG13         3.9830    -5.1800     1.0830 hc         1 VMS       0.039200
     38 HA           3.4640    -1.4760     1.6090 h1         1 VMS       0.059700
     39 H            0.7600    -2.4920     1.0090 hn         1 VMS       0.366300
     40 H2           1.6200    -2.8400     2.3330 hn         1 VMS       0.366300
     41 HAS          3.7970     0.5030     0.8750 hn         1 VMS       0.344500
     42 H5'1         1.3170     1.9340     1.0210 h1         1 VMS       0.053200
     43 H5'2         1.7810     3.5810     0.5310 h1         1 VMS       0.053200
     44 H4          -0.2510     3.7640    -0.8770 h1         1 VMS       0.111700
     45 H3          -0.3450     4.0500     1.8890 h1         1 VMS       0.052700
     46 HO3         -2.7660     4.2880     1.5570 ho         1 VMS       0.427000
     47 H1          -0.6380     1.6100     2.1900 h1         1 VMS       0.049700
     48 H6          -2.0850     2.5300     3.6050 ho         1 VMS       0.416000
     49 H9          -2.9090     1.9550     0.1170 h2         1 VMS       0.124700
     50 H8          -0.9870    -0.5910     2.1380 h5         1 VMS       0.075800
     51 H7          -5.0360    -0.8590    -2.9550 h5         1 VMS       0.046100
     52 HN61        -2.9500    -4.4980     0.0190 hn         1 VMS       0.450300
     53 HN62        -4.0130    -4.7170    -1.3260 hn         1 VMS       0.450300
@<TRIPOS>BOND
     1     1     2 1   
     2     1    31 1   
     3     1    32 1   
     4     1    33 1   
     5     2     3 1   
     6     2     4 1   
     7     2    34 1   
     8     3    35 1   
     9     3    36 1   
    10     3    37 1   
    11     4     5 1   
    12     4     6 1   
    13     4    38 1   
    14     5    39 1   
    15     5    40 1   
    16     6     7 2   
    17     6     8 1   
    18     8     9 1   
    19     8    41 1   
    20     9    10 2   
    21     9    11 2   
    22     9    12 1   
    23    12    13 1   
    24    13    14 1   
    25    13    42 1   
    26    13    43 1   
    27    14    15 1   
    28    14    16 1   
    29    14    44 1   
    30    15    20 1   
    31    16    17 1   
    32    16    18 1   
    33    16    45 1   
    34    17    46 1   
    35    18    19 1   
    36    18    20 1   
    37    18    47 1   
    38    19    48 1   
    39    20    21 1   
    40    20    49 1   
    41    21    22 1   
    42    21    25 1   
    43    22    23 2   
    44    22    50 1   
    45    23    24 1   
    46    24    25 ar  
    47    24    29 ar  
    48    25    26 ar  
    49    26    27 ar  
    50    27    28 ar  
    51    27    51 1   
    52    28    29 ar  
    53    29    30 1   
    54    30    52 1   
    55    30    53 1   
@<TRIPOS>SUBSTRUCTURE
     1 VMS         1 TEMP              0 ****  ****    0 ROOT
