@<TRIPOS>MOLECULE
VMT
   20    20     1     0     0
SMALL
abcg2


@<TRIPOS>ATOM
      1 C01        108.7170   102.2610   142.8290 ca         1 VMT      -0.010900
      2 N01        102.4390   103.6870   142.2700 n8         1 VMT      -1.004200
      3 C02        108.1250   102.0950   141.5850 ca         1 VMT      -0.083000
      4 C03        106.7370   102.0840   141.5000 ca         1 VMT      -0.107000
      5 C04        105.9390   102.2360   142.6350 ca         1 VMT      -0.067300
      6 C05        106.5690   102.4020   143.8690 ca         1 VMT      -0.107000
      7 C06        107.9550   102.4150   143.9780 ca         1 VMT      -0.083000
      8 C07        104.4380   102.2670   142.5290 c3         1 VMT      -0.036100
      9 C08        103.9040   103.6910   142.3510 c3         1 VMT       0.151800
     10 BR01       110.6310   102.2730   142.9650 br         1 VMT      -0.114100
     11 H1         102.0970   104.6400   142.2010 hn         1 VMT       0.394500
     12 H2         102.1480   103.2230   141.4140 hn         1 VMT       0.394500
     13 H4         108.7310   101.9720   140.6980 ha         1 VMT       0.129500
     14 H5         106.2690   101.9510   140.5320 ha         1 VMT       0.117000
     15 H6         105.9700   102.5190   144.7640 ha         1 VMT       0.117000
     16 H7         108.4300   102.5400   144.9410 ha         1 VMT       0.129500
     17 H8         103.9890   101.8360   143.4270 hc         1 VMT       0.056700
     18 H9         104.1160   101.6610   141.6780 hc         1 VMT       0.056700
     19 H10        104.3830   104.1400   141.4700 h1         1 VMT       0.032700
     20 H11        104.1960   104.2940   143.2150 h1         1 VMT       0.032700
@<TRIPOS>BOND
     1     1     3 ar  
     2     1     7 ar  
     3     1    10 1   
     4     2     9 1   
     5     2    11 1   
     6     2    12 1   
     7     3     4 ar  
     8     3    13 1   
     9     4     5 ar  
    10     4    14 1   
    11     5     6 ar  
    12     5     8 1   
    13     6     7 ar  
    14     6    15 1   
    15     7    16 1   
    16     8     9 1   
    17     8    17 1   
    18     8    18 1   
    19     9    19 1   
    20     9    20 1   
@<TRIPOS>SUBSTRUCTURE
     1 VMT         1 TEMP              0 ****  ****    0 ROOT
