@<TRIPOS>MOLECULE
VMT
   20    20     1     0     0
SMALL
No Charge or Current Charge


@<TRIPOS>ATOM
      1 C01        108.7630   102.2430   142.8320 ca         1 VMT      -0.010900
      2 N01        102.4010   103.7050   142.2670 n8         1 VMT      -1.004200
      3 C02        108.1430   102.1030   141.5800 ca         1 VMT      -0.083000
      4 C03        106.7400   102.1090   141.4880 ca         1 VMT      -0.107000
      5 C04        105.9520   102.2540   142.6470 ca         1 VMT      -0.067300
      6 C05        106.5820   102.3960   143.8990 ca         1 VMT      -0.107000
      7 C06        107.9850   102.3900   143.9920 ca         1 VMT      -0.083000
      8 C07        104.4320   102.2660   142.5470 c3         1 VMT      -0.036100
      9 C08        103.8760   103.6930   142.3600 c3         1 VMT       0.151800
     10 Br01       110.6720   102.2360   142.9580 br         1 VMT      -0.114100
     11 H1         102.0850   104.6680   142.0920 hn         1 VMT       0.394500
     12 H2         102.1150   103.2030   141.4180 hn         1 VMT       0.394500
     13 H4         108.7470   101.9900   140.6820 ha         1 VMT       0.129500
     14 H5         106.2660   102.0020   140.5150 ha         1 VMT       0.117000
     15 H6         105.9850   102.5130   144.8010 ha         1 VMT       0.117000
     16 H7         108.4670   102.5000   144.9610 ha         1 VMT       0.129500
     17 H8         103.9930   101.8250   143.4500 hc         1 VMT       0.056700
     18 H9         104.1060   101.6380   141.7080 hc         1 VMT       0.056700
     19 H10        104.2930   104.1330   141.4420 h1         1 VMT       0.032700
     20 H11        104.1800   104.3180   143.2110 h1         1 VMT       0.032700
@<TRIPOS>BOND
     1     1     3 ar  
     2     1     7 ar  
     3     1    10 1   
     4     2     9 1   
     5     2    11 1   
     6     2    12 1   
     7     3     4 ar  
     8     3    13 1   
     9     4     5 ar  
    10     4    14 1   
    11     5     6 ar  
    12     5     8 1   
    13     6     7 ar  
    14     6    15 1   
    15     7    16 1   
    16     8     9 1   
    17     8    17 1   
    18     8    18 1   
    19     9    19 1   
    20     9    20 1   
@<TRIPOS>SUBSTRUCTURE
     1 VMT         1 TEMP              0 ****  ****    0 ROOT
