@<TRIPOS>MOLECULE
VMV
   55    57     1     0     0
SMALL
No Charge or Current Charge


@<TRIPOS>ATOM
      1 C2         -10.0090    21.5650    12.6450 ca         1 VMV       0.365900
      2 C6          -5.5700    21.1130    14.9940 c6         1 VMV       0.157500
      3 C8          -8.0200    20.4690    15.5380 c6         1 VMV      -0.138700
      4 C4          -7.9340    22.3880    12.2110 ca         1 VMV       0.355900
      5 C9          -5.0660    19.7090    14.4780 c3         1 VMV       0.203800
      6 C12         -5.6350    16.9560    18.8990 ca         1 VMV      -0.153600
      7 C15         -4.7050    18.2920    16.5780 ca         1 VMV       0.314000
      8 C16         -3.9960    18.3920    17.7800 ca         1 VMV      -0.212000
      9 C17         -4.4520    17.7340    18.9360 ca         1 VMV      -0.033000
     10 N           -5.4460    16.3710    21.2880 ns         1 VMV      -0.448900
     11 CA          -5.7640    15.7240    22.5840 c3         1 VMV      -0.048300
     12 O           -7.1860    15.5520    20.0770 o          1 VMV      -0.652100
     13 CB          -5.3150    14.2380    22.5990 c3         1 VMV      -0.036400
     14 CG          -5.7380    13.4620    23.8720 c3         1 VMV      -0.195400
     15 CD          -5.3160    11.9870    23.7600 c          1 VMV       0.716000
     16 OE1         -6.0930    11.2000    23.2430 o          1 VMV      -0.769500
     17 OE2         -4.2040    11.6730    24.1560 o          1 VMV      -0.769500
     18 C13         -6.3360    16.8550    17.6750 ca         1 VMV      -0.033000
     19 C14         -5.8710    17.5170    16.5260 ca         1 VMV      -0.212000
     20 C4A         -7.4480    21.8250    13.4290 ca         1 VMV       0.061000
     21 C7          -6.6780    21.0280    16.0880 c6         1 VMV      -0.071400
     22 C8A         -8.4040    21.1260    14.2090 ca         1 VMV       0.145300
     23 CT          -5.1410    16.5490    23.7550 c          1 VMV       0.716000
     24 N1          -9.6870    20.9920    13.8150 nb         1 VMV      -0.243000
     25 N10         -4.2330    18.9610    15.4530 nu         1 VMV      -0.987200
     26 N3          -9.2110    22.2550    11.8210 nb         1 VMV      -0.307000
     27 N5          -6.1000    21.9290    13.8730 nu         1 VMV      -0.893200
     28 NA2        -11.2960    21.4320    12.2450 nv         1 VMV      -1.040900
     29 NA4         -7.1600    23.1200    11.3460 nv         1 VMV      -1.056900
     30 O1          -5.8810    16.9330    24.6500 o          1 VMV      -0.740500
     31 O2          -3.9720    16.9020    23.6580 o          1 VMV      -0.740500
     32 H61         -4.6940    21.6230    15.4230 h1         1 VMV       0.054700
     33 H82         -8.8140    20.6220    16.2810 hc         1 VMV       0.081700
     34 H81         -7.9420    19.3840    15.3920 hc         1 VMV       0.081700
     35 H92         -5.9230    19.1070    14.1480 h1         1 VMV       0.045700
     36 H91         -4.4540    19.8980    13.5850 h1         1 VMV       0.045700
     37 H161        -3.0880    18.9870    17.8280 ha         1 VMV       0.095000
     38 H171        -3.8720    17.8410    19.8490 ha         1 VMV       0.132000
     39 H           -4.6210    16.9550    21.2500 hn         1 VMV       0.332500
     40 HA          -6.8540    15.7550    22.7130 h1         1 VMV       0.049700
     41 HB2         -4.2250    14.1890    22.4910 hc         1 VMV       0.027700
     42 HB3         -5.7400    13.7300    21.7250 hc         1 VMV       0.027700
     43 HG2         -6.8310    13.5420    23.9240 hc         1 VMV       0.031700
     44 HG3         -5.2190    13.9410    24.7100 hc         1 VMV       0.031700
     45 H131        -7.2450    16.2610    17.6110 ha         1 VMV       0.132000
     46 H141        -6.4210    17.4150    15.5960 ha         1 VMV       0.095000
     47 H72         -6.3380    20.4300    16.9430 hc         1 VMV       0.058700
     48 H71         -6.8520    22.0370    16.4860 hc         1 VMV       0.058700
     49 H101        -3.2830    19.3180    15.5650 hn         1 VMV       0.467000
     50 H2          -5.4310    22.3440    13.2230 hn         1 VMV       0.430000
     51 HA21       -11.5370    21.6740    11.2870 hn         1 VMV       0.471000
     52 HA22       -11.8940    20.7600    12.7210 hn         1 VMV       0.471000
     53 HA42        -7.6350    23.6290    10.6050 hn         1 VMV       0.467500
     54 HA41        -6.3040    23.5380    11.6990 hn         1 VMV       0.467500
     55 C           -6.1660    16.2290    20.1190 c          1 VMV       0.590700
@<TRIPOS>BOND
     1     1    24 ar  
     2     1    26 ar  
     3     1    28 1   
     4     2     5 1   
     5     2    21 1   
     6     2    27 1   
     7     2    32 1   
     8     3    21 1   
     9     3    22 1   
    10     3    33 1   
    11     3    34 1   
    12     4    20 ar  
    13     4    26 ar  
    14     4    29 1   
    15     5    25 1   
    16     5    35 1   
    17     5    36 1   
    18     6     9 ar  
    19     6    18 ar  
    20     6    55 1   
    21     7     8 ar  
    22     7    19 ar  
    23     7    25 1   
    24     8     9 ar  
    25     8    37 1   
    26     9    38 1   
    27    10    11 1   
    28    10    39 1   
    29    10    55 1   
    30    11    13 1   
    31    11    23 1   
    32    11    40 1   
    33    12    55 2   
    34    13    14 1   
    35    13    41 1   
    36    13    42 1   
    37    14    15 1   
    38    14    43 1   
    39    14    44 1   
    40    15    16 1   
    41    15    17 1   
    42    18    19 ar  
    43    18    45 1   
    44    19    46 1   
    45    20    22 ar  
    46    20    27 1   
    47    21    47 1   
    48    21    48 1   
    49    22    24 ar  
    50    23    30 1   
    51    23    31 1   
    52    25    49 1   
    53    27    50 1   
    54    28    51 1   
    55    28    52 1   
    56    29    53 1   
    57    29    54 1   
@<TRIPOS>SUBSTRUCTURE
     1 VMV         1 TEMP              0 ****  ****    0 ROOT
