@<TRIPOS>MOLECULE
VMV
   55    57     1     0     0
SMALL
abcg2


@<TRIPOS>ATOM
      1 C2          -9.9820    21.2580    13.1820 ca         1 VMV       0.365900
      2 C6          -5.2810    21.3890    14.6640 c6         1 VMV       0.157500
      3 C8          -7.5020    21.1880    15.8380 c6         1 VMV      -0.138700
      4 C4          -8.0300    21.8250    12.1720 ca         1 VMV       0.355900
      5 C9          -4.9960    19.8770    14.5970 c3         1 VMV       0.203800
      6 C12         -5.6410    17.0040    18.9100 ca         1 VMV      -0.153600
      7 C15         -4.7470    18.6220    16.7530 ca         1 VMV       0.314000
      8 C16         -4.0010    18.5010    17.9400 ca         1 VMV      -0.212000
      9 C17         -4.4400    17.7150    18.9850 ca         1 VMV      -0.033000
     10 N           -5.6520    16.3370    21.2210 ns         1 VMV      -0.448900
     11 CA          -6.0410    15.6040    22.4070 c3         1 VMV      -0.048300
     12 O           -7.0200    15.2810    19.7700 o          1 VMV      -0.652100
     13 CB          -5.3350    14.2380    22.4670 c3         1 VMV      -0.036400
     14 CG          -5.9740    13.2340    23.4130 c3         1 VMV      -0.195400
     15 CD          -5.3680    11.8170    23.4010 c          1 VMV       0.716000
     16 OE1         -5.9820    10.9610    24.0730 o          1 VMV      -0.769500
     17 OE2         -4.3220    11.6300    22.7470 o          1 VMV      -0.769500
     18 C13         -6.3660    17.1050    17.7240 ca         1 VMV      -0.033000
     19 C14         -5.9450    17.8920    16.6690 ca         1 VMV      -0.212000
     20 C4A         -7.3360    21.6400    13.3900 ca         1 VMV       0.061000
     21 C7          -6.1050    21.7950    15.8770 c6         1 VMV      -0.071400
     22 C8A         -8.1210    21.3220    14.4800 ca         1 VMV       0.145300
     23 CT          -5.7180    16.4800    23.6450 c          1 VMV       0.716000
     24 N1          -9.4450    21.1300    14.3830 nb         1 VMV      -0.243000
     25 N10         -4.2650    19.3940    15.7390 nu         1 VMV      -0.987200
     26 N3          -9.3320    21.6150    12.0730 nb         1 VMV      -0.307000
     27 N5          -5.9490    21.8510    13.4570 nu         1 VMV      -0.893200
     28 NA2        -11.3320    21.0700    13.0660 nv         1 VMV      -1.040900
     29 NA4         -7.3530    22.1830    11.0470 nv         1 VMV      -1.056900
     30 O1          -6.1890    16.0980    24.7300 o          1 VMV      -0.740500
     31 O2          -5.0030    17.4860    23.4500 o          1 VMV      -0.740500
     32 H61         -4.3160    21.9040    14.7150 h1         1 VMV       0.054700
     33 H82         -8.1490    21.6720    16.5730 hc         1 VMV       0.081700
     34 H81         -7.4750    20.1310    16.1210 hc         1 VMV       0.081700
     35 H92         -5.9260    19.3210    14.4870 h1         1 VMV       0.045700
     36 H91         -4.4200    19.6790    13.6870 h1         1 VMV       0.045700
     37 H161        -3.0630    19.0360    18.0330 ha         1 VMV       0.095000
     38 H171        -3.8080    17.6520    19.8630 ha         1 VMV       0.132000
     39 H           -5.0720    17.1400    21.4220 hn         1 VMV       0.332500
     40 HA          -7.1230    15.4320    22.3800 h1         1 VMV       0.049700
     41 HB2         -4.2820    14.3920    22.7230 hc         1 VMV       0.027700
     42 HB3         -5.3370    13.8180    21.4590 hc         1 VMV       0.027700
     43 HG2         -7.0430    13.1490    23.1810 hc         1 VMV       0.031700
     44 HG3         -5.9390    13.6100    24.4380 hc         1 VMV       0.031700
     45 H131        -7.2900    16.5520    17.6190 ha         1 VMV       0.132000
     46 H141        -6.5510    17.9200    15.7740 ha         1 VMV       0.095000
     47 H72         -5.5890    21.5060    16.7940 hc         1 VMV       0.058700
     48 H71         -6.1780    22.8850    15.8930 hc         1 VMV       0.058700
     49 H101        -3.3990    19.8750    15.9280 hn         1 VMV       0.467000
     50 H2          -5.4730    21.5110    12.6300 hn         1 VMV       0.430000
     51 HA21       -11.6710    20.8620    12.1410 hn         1 VMV       0.471000
     52 HA22       -11.7650    20.5280    13.7940 hn         1 VMV       0.471000
     53 HA42        -7.9240    22.4650    10.2670 hn         1 VMV       0.467500
     54 HA41        -6.5230    22.7430    11.1610 hn         1 VMV       0.467500
     55 C           -6.1620    16.1320    20.0000 c          1 VMV       0.590700
@<TRIPOS>BOND
     1     1    24 ar  
     2     1    26 ar  
     3     1    28 1   
     4     2     5 1   
     5     2    21 1   
     6     2    27 1   
     7     2    32 1   
     8     3    21 1   
     9     3    22 1   
    10     3    33 1   
    11     3    34 1   
    12     4    20 ar  
    13     4    26 ar  
    14     4    29 1   
    15     5    25 1   
    16     5    35 1   
    17     5    36 1   
    18     6     9 ar  
    19     6    18 ar  
    20     6    55 1   
    21     7     8 ar  
    22     7    19 ar  
    23     7    25 1   
    24     8     9 ar  
    25     8    37 1   
    26     9    38 1   
    27    10    11 1   
    28    10    39 1   
    29    10    55 1   
    30    11    13 1   
    31    11    23 1   
    32    11    40 1   
    33    12    55 2   
    34    13    14 1   
    35    13    41 1   
    36    13    42 1   
    37    14    15 1   
    38    14    43 1   
    39    14    44 1   
    40    15    16 1   
    41    15    17 1   
    42    18    19 ar  
    43    18    45 1   
    44    19    46 1   
    45    20    22 ar  
    46    20    27 1   
    47    21    47 1   
    48    21    48 1   
    49    22    24 ar  
    50    23    30 1   
    51    23    31 1   
    52    25    49 1   
    53    27    50 1   
    54    28    51 1   
    55    28    52 1   
    56    29    53 1   
    57    29    54 1   
@<TRIPOS>SUBSTRUCTURE
     1 VMV         1 TEMP              0 ****  ****    0 ROOT
