@<TRIPOS>MOLECULE
VMW
   57    59     1     0     0
SMALL
abcg2


@<TRIPOS>ATOM
      1 C1           5.7030   -17.0370    16.3940 c3         1 VMW      -0.049800
      2 C12          6.4080   -17.9480    21.3090 c3         1 VMW       0.086000
      3 C14          8.8220   -17.7020    21.5800 c          1 VMW       0.615700
      4 C16         10.1680   -18.3260    21.3600 ca         1 VMW      -0.187600
      5 C17         10.5420   -19.4590    22.0750 ca         1 VMW       0.361900
      6 C19         12.6550   -19.4130    21.2210 ca         1 VMW       0.349900
      7 C2           5.8240   -16.5330    17.8050 ca         1 VMW      -0.090300
      8 C20         12.3700   -18.2960    20.4480 ca         1 VMW      -0.159000
      9 C21         11.0990   -17.7310    20.4970 cp         1 VMW       0.038000
     10 C22         10.7450   -16.5810    19.6350 cp         1 VMW      -0.015000
     11 C23          9.6040   -16.6280    18.8300 ca         1 VMW      -0.094000
     12 C24          9.2780   -15.5650    18.0030 ca         1 VMW      -0.059000
     13 C25         10.0900   -14.4360    17.9780 ca         1 VMW      -0.180300
     14 C26         11.2380   -14.3790    18.7660 ca         1 VMW      -0.059000
     15 C27         11.5680   -15.4540    19.5780 ca         1 VMW      -0.094000
     16 C28          9.7620   -13.2930    17.0630 c3         1 VMW       0.343300
     17 C3           5.9910   -17.4180    18.8660 ca         1 VMW      -0.076000
     18 C32          5.4600   -19.1500    21.2340 c          1 VMW       0.591100
     19 C35          3.2550   -20.0760    21.4480 c3         1 VMW       0.088300
     20 C36          3.6560   -17.6730    22.0460 c3         1 VMW       0.088300
     21 C4           6.1480   -16.9650    20.1730 ca         1 VMW      -0.125300
     22 C5           6.1430   -15.6000    20.4310 ca         1 VMW      -0.034000
     23 C6           5.9780   -14.7070    19.3770 ca         1 VMW      -0.187300
     24 C7           5.8110   -15.1650    18.0760 ca         1 VMW      -0.056000
     25 C8           5.9690   -13.2350    19.6680 c3         1 VMW       0.342300
     26 F10          4.7650   -12.8130    20.1440 f          1 VMW      -0.110000
     27 F11          6.8810   -12.8920    20.6070 f          1 VMW      -0.110000
     28 F29         10.4480   -13.3660    15.8900 f          1 VMW      -0.112333
     29 F30          8.4560   -13.2470    16.7350 f          1 VMW      -0.112333
     30 F31         10.0730   -12.0940    17.6040 f          1 VMW      -0.112333
     31 F9           6.2320   -12.4850    18.5780 f          1 VMW      -0.110000
     32 N13          7.7650   -18.4580    21.2410 ns         1 VMW      -0.493900
     33 N18         11.7610   -20.0010    22.0210 nb         1 VMW      -0.658000
     34 O15          8.7210   -16.5660    22.0410 o          1 VMW      -0.588100
     35 O33          5.8730   -20.2240    20.7850 o          1 VMW      -0.619100
     36 H1           6.6930   -17.1060    15.9320 hc         1 VMW       0.049367
     37 H2           5.2590   -18.0320    16.3670 hc         1 VMW       0.049367
     38 H3           5.0990   -16.3660    15.7820 hc         1 VMW       0.049367
     39 H4           6.2860   -17.4190    22.2510 h1         1 VMW       0.092700
     40 H5           9.8280   -19.9340    22.7400 h4         1 VMW       0.030100
     41 H6          13.6430   -19.8610    21.1860 h4         1 VMW       0.026100
     42 H7          13.1250   -17.8860    19.7900 ha         1 VMW       0.131000
     43 H8           8.9630   -17.4980    18.8470 ha         1 VMW       0.124000
     44 H9           8.3970   -15.6210    17.3820 ha         1 VMW       0.132000
     45 H10         11.8690   -13.5010    18.7500 ha         1 VMW       0.132000
     46 H11         12.4540   -15.4030    20.1970 ha         1 VMW       0.124000
     47 H12          6.0160   -18.4830    18.6640 ha         1 VMW       0.128000
     48 H13          2.3690   -19.8900    22.0490 h1         1 VMW       0.047867
     49 H14          2.9650   -20.1700    20.3980 h1         1 VMW       0.047867
     50 H15          3.7130   -21.0090    21.7680 h1         1 VMW       0.047867
     51 H16          2.6970   -17.8370    22.5290 h1         1 VMW       0.047867
     52 H17          4.3160   -17.1870    22.7620 h1         1 VMW       0.047867
     53 H18          3.5060   -17.0090    21.1920 h1         1 VMW       0.047867
     54 H19          6.2830   -15.2450    21.4420 ha         1 VMW       0.144000
     55 H20          5.6880   -14.4590    17.2660 ha         1 VMW       0.137000
     56 H21          7.8830   -19.3480    20.7760 hn         1 VMW       0.347500
     57 N34          4.1910   -18.9690    21.6370 n          1 VMW      -0.396800
@<TRIPOS>BOND
     1     1     7 1   
     2     1    36 1   
     3     1    37 1   
     4     1    38 1   
     5     2    18 1   
     6     2    21 1   
     7     2    32 1   
     8     2    39 1   
     9     3     4 1   
    10     3    32 1   
    11     3    34 2   
    12     4     5 ar  
    13     4     9 ar  
    14     5    33 ar  
    15     5    40 1   
    16     6     8 ar  
    17     6    33 ar  
    18     6    41 1   
    19     7    17 ar  
    20     7    24 ar  
    21     8     9 ar  
    22     8    42 1   
    23     9    10 1   
    24    10    11 ar  
    25    10    15 ar  
    26    11    12 ar  
    27    11    43 1   
    28    12    13 ar  
    29    12    44 1   
    30    13    14 ar  
    31    13    16 1   
    32    14    15 ar  
    33    14    45 1   
    34    15    46 1   
    35    16    28 1   
    36    16    29 1   
    37    16    30 1   
    38    17    21 ar  
    39    17    47 1   
    40    18    35 2   
    41    18    57 1   
    42    19    48 1   
    43    19    49 1   
    44    19    50 1   
    45    19    57 1   
    46    20    51 1   
    47    20    52 1   
    48    20    53 1   
    49    20    57 1   
    50    21    22 ar  
    51    22    23 ar  
    52    22    54 1   
    53    23    24 ar  
    54    23    25 1   
    55    24    55 1   
    56    25    26 1   
    57    25    27 1   
    58    25    31 1   
    59    32    56 1   
@<TRIPOS>SUBSTRUCTURE
     1 VMW         1 TEMP              0 ****  ****    0 ROOT
