@<TRIPOS>MOLECULE
VMW
   57    59     1     0     0
SMALL
No Charge or Current Charge


@<TRIPOS>ATOM
      1 C1           5.3970   -17.6210    16.3790 c3         1 VMW      -0.049800
      2 C12          6.4210   -17.9980    21.3520 c3         1 VMW       0.086000
      3 C14          8.9220   -17.7290    21.4920 c          1 VMW       0.615700
      4 C16         10.2210   -18.3970    21.1930 ca         1 VMW      -0.187600
      5 C17         10.5360   -19.6520    21.7280 ca         1 VMW       0.361900
      6 C19         12.6300   -19.6130    20.7410 ca         1 VMW       0.349900
      7 C2           5.6690   -16.9600    17.7220 ca         1 VMW      -0.090300
      8 C20         12.3830   -18.3610    20.1560 ca         1 VMW      -0.159000
      9 C21         11.1450   -17.7120    20.3580 cp         1 VMW       0.038000
     10 C22         10.8500   -16.4190    19.6650 cp         1 VMW      -0.015000
     11 C23          9.6970   -16.2640    18.8580 ca         1 VMW      -0.094000
     12 C24          9.4290   -15.0540    18.1980 ca         1 VMW      -0.059000
     13 C25         10.3140   -13.9620    18.3180 ca         1 VMW      -0.180300
     14 C26         11.4690   -14.1080    19.1150 ca         1 VMW      -0.059000
     15 C27         11.7360   -15.3220    19.7720 ca         1 VMW      -0.094000
     16 C28         10.0270   -12.6310    17.6140 c3         1 VMW       0.343300
     17 C3           5.9030   -17.7490    18.8620 ca         1 VMW      -0.076000
     18 C32          5.3980   -19.1720    21.5070 c          1 VMW       0.591100
     19 C35          3.0400   -19.9630    21.8650 c3         1 VMW       0.088300
     20 C36          3.5560   -17.4810    21.9500 c3         1 VMW       0.088300
     21 C4           6.1530   -17.1440    20.1090 ca         1 VMW      -0.125300
     22 C5           6.1900   -15.7400    20.2020 ca         1 VMW      -0.034000
     23 C6           5.9740   -14.9350    19.0640 ca         1 VMW      -0.187300
     24 C7           5.7010   -15.5580    17.8260 ca         1 VMW      -0.056000
     25 C8           6.0290   -13.4090    19.1850 c3         1 VMW       0.342300
     26 F10          4.8590   -12.9110    19.6410 f          1 VMW      -0.110000
     27 F11          6.9930   -13.0030    20.0420 f          1 VMW      -0.110000
     28 F29         11.1530   -12.0640    17.1240 f          1 VMW      -0.112333
     29 F30          9.1770   -12.7650    16.5700 f          1 VMW      -0.112333
     30 F31          9.4720   -11.7360    18.4620 f          1 VMW      -0.112333
     31 F9           6.2840   -12.8010    18.0030 f          1 VMW      -0.110000
     32 N13          7.8060   -18.5060    21.2970 ns         1 VMW      -0.493900
     33 N18         11.7250   -20.2590    21.5110 nb         1 VMW      -0.658000
     34 O15          8.8490   -16.5820    21.9070 o          1 VMW      -0.588100
     35 O33          5.7560   -20.3410    21.3890 o          1 VMW      -0.619100
     36 H1           6.3300   -17.7760    15.8250 hc         1 VMW       0.049367
     37 H2           4.9140   -18.5970    16.5030 hc         1 VMW       0.049367
     38 H3           4.7360   -17.0050    15.7570 hc         1 VMW       0.049367
     39 H4           6.3240   -17.3780    22.2520 h1         1 VMW       0.092700
     40 H5           9.8310   -20.1830    22.3680 h4         1 VMW       0.030100
     41 H6          13.5800   -20.1210    20.5800 h4         1 VMW       0.026100
     42 H7          13.1440   -17.9080    19.5260 ha         1 VMW       0.131000
     43 H8           9.0040   -17.0940    18.7390 ha         1 VMW       0.124000
     44 H9           8.5290   -14.9740    17.5920 ha         1 VMW       0.132000
     45 H10         12.1650   -13.2790    19.2310 ha         1 VMW       0.132000
     46 H11         12.6320   -15.4120    20.3820 ha         1 VMW       0.124000
     47 H12          5.8920   -18.8340    18.7750 ha         1 VMW       0.128000
     48 H13          2.0200   -19.5590    21.8990 h1         1 VMW       0.047867
     49 H14          3.1220   -20.6270    20.9950 h1         1 VMW       0.047867
     50 H15          3.2250   -20.5420    22.7780 h1         1 VMW       0.047867
     51 H16          2.5270   -17.4780    22.3320 h1         1 VMW       0.047867
     52 H17          4.1900   -16.9560    22.6750 h1         1 VMW       0.047867
     53 H18          3.5740   -16.9460    20.9930 h1         1 VMW       0.047867
     54 H19          6.3980   -15.2720    21.1620 ha         1 VMW       0.144000
     55 H20          5.5210   -14.9560    16.9380 ha         1 VMW       0.137000
     56 H21          7.9490   -19.4570    20.9750 hn         1 VMW       0.347500
     57 N34          4.0360   -18.8710    21.7580 n          1 VMW      -0.396800
@<TRIPOS>BOND
     1     1     7 1   
     2     1    36 1   
     3     1    37 1   
     4     1    38 1   
     5     2    18 1   
     6     2    21 1   
     7     2    32 1   
     8     2    39 1   
     9     3     4 1   
    10     3    32 1   
    11     3    34 2   
    12     4     5 ar  
    13     4     9 ar  
    14     5    33 ar  
    15     5    40 1   
    16     6     8 ar  
    17     6    33 ar  
    18     6    41 1   
    19     7    17 ar  
    20     7    24 ar  
    21     8     9 ar  
    22     8    42 1   
    23     9    10 1   
    24    10    11 ar  
    25    10    15 ar  
    26    11    12 ar  
    27    11    43 1   
    28    12    13 ar  
    29    12    44 1   
    30    13    14 ar  
    31    13    16 1   
    32    14    15 ar  
    33    14    45 1   
    34    15    46 1   
    35    16    28 1   
    36    16    29 1   
    37    16    30 1   
    38    17    21 ar  
    39    17    47 1   
    40    18    35 2   
    41    18    57 1   
    42    19    48 1   
    43    19    49 1   
    44    19    50 1   
    45    19    57 1   
    46    20    51 1   
    47    20    52 1   
    48    20    53 1   
    49    20    57 1   
    50    21    22 ar  
    51    22    23 ar  
    52    22    54 1   
    53    23    24 ar  
    54    23    25 1   
    55    24    55 1   
    56    25    26 1   
    57    25    27 1   
    58    25    31 1   
    59    32    56 1   
@<TRIPOS>SUBSTRUCTURE
     1 VMW         1 TEMP              0 ****  ****    0 ROOT
