@<TRIPOS>MOLECULE
VMX
   47    49     1     0     0
SMALL
No Charge or Current Charge


@<TRIPOS>ATOM
      1 S           -4.0560     0.6810     0.7610 s6         1 VMX       1.182100
      2 N1           5.0370    -2.2570     0.0370 nb         1 VMX      -0.300000
      3 C2           5.1360    -0.9130     0.1710 ca         1 VMX       0.188900
      4 N3           4.1160    -0.0230     0.1600 nb         1 VMX      -0.216000
      5 C4           2.8820    -0.5420     0.0000 ca         1 VMX       0.148500
      6 C5           2.6720    -1.8900    -0.1460 ca         1 VMX      -0.105600
      7 C6           3.7970    -2.7420    -0.1250 ca         1 VMX       0.453900
      8 N6           3.6950    -4.0910    -0.2580 nv         1 VMX      -1.061900
      9 N7           1.3260    -2.2070    -0.2920 nc         1 VMX      -0.546100
     10 C8           0.7480    -0.9930    -0.2300 cd         1 VMX       0.394700
     11 N9           1.6550     0.0650    -0.0520 na         1 VMX      -0.290300
     12 C1           1.3410     1.4860     0.0360 c5         1 VMX       0.315300
     13 C10         -4.4310    -1.8390    -0.3920 c3         1 VMX      -0.046400
     14 C11         -3.8270    -3.0830    -1.0780 c3         1 VMX       0.154800
     15 N12         -4.8640    -4.0780    -1.4120 n8         1 VMX      -0.995200
     16 C1S         -3.3580    -0.7780    -0.0340 c3         1 VMX      -0.350400
     17 C7           0.9630     2.1820    -1.3120 c5         1 VMX       0.082300
     18 O2           2.0900     2.5540    -2.1310 oh         1 VMX      -0.690000
     19 O2S         -4.8600     1.4310    -0.2060 o          1 VMX      -0.521000
     20 C3           0.2310     3.4330    -0.7590 c5         1 VMX       0.112300
     21 O3           1.1860     4.3950    -0.2900 oh         1 VMX      -0.699000
     22 O3S         -4.6110     0.3250     2.0670 o          1 VMX      -0.521000
     23 C9          -0.6080     2.7840     0.3940 c5         1 VMX       0.158300
     24 O4           0.1910     1.6710     0.8930 os         1 VMX      -0.456000
     25 C12         -1.9880     2.2320    -0.0560 c3         1 VMX       0.185800
     26 N5          -2.7050     1.6020     1.0720 n7         1 VMX      -0.862300
     27 HN6          4.4750    -4.6610     0.0580 hn         1 VMX       0.507500
     28 HN6A         2.7660    -4.4940    -0.1600 hn         1 VMX       0.507500
     29 H8          -0.3160    -0.8040    -0.3100 h5         1 VMX       0.052800
     30 H1           2.2130     1.9820     0.4840 h2         1 VMX       0.130700
     31 H10         -5.1800    -1.3930    -1.0590 hc         1 VMX       0.067200
     32 H10A        -4.9560    -2.1510     0.5200 hc         1 VMX       0.067200
     33 H11         -3.3180    -2.7810    -2.0040 h1         1 VMX       0.028700
     34 H11A        -3.0890    -3.5510    -0.4120 h1         1 VMX       0.028700
     35 HN12        -4.4120    -4.9050    -1.8220 hn         1 VMX       0.395500
     36 HN1A        -5.2750    -4.4380    -0.5420 hn         1 VMX       0.395500
     37 H1S         -2.8520    -0.4370    -0.9430 h1         1 VMX       0.086700
     38 H1SA        -2.6260    -1.2000     0.6620 h1         1 VMX       0.086700
     39 H2           0.2680     1.5530    -1.8860 h1         1 VMX       0.049700
     40 HO2          2.4360     1.7310    -2.5550 ho         1 VMX       0.518000
     41 H3          -0.4190     3.8850    -1.5230 h1         1 VMX       0.061700
     42 HO3          1.9420     4.3060    -0.9240 ho         1 VMX       0.526000
     43 H4          -0.7790     3.5040     1.2060 h1         1 VMX       0.118700
     44 H5          -2.5810     3.0590    -0.4710 h1         1 VMX       0.054700
     45 H5'A        -1.8200     1.5130    -0.8690 h1         1 VMX       0.054700
     46 HN5         -2.0840     0.9060     1.4850 hn         1 VMX       0.496000
     47 H6           6.1370    -0.5070     0.3010 h5         1 VMX       0.050100
@<TRIPOS>BOND
     1     1    16 1   
     2     1    19 2   
     3     1    22 2   
     4     1    26 1   
     5     2     3 ar  
     6     2     7 ar  
     7     3     4 ar  
     8     3    47 1   
     9     4     5 ar  
    10     5     6 ar  
    11     5    11 1   
    12     6     7 ar  
    13     6     9 1   
    14     7     8 1   
    15     8    27 1   
    16     8    28 1   
    17     9    10 2   
    18    10    11 1   
    19    10    29 1   
    20    11    12 1   
    21    12    17 1   
    22    12    24 1   
    23    12    30 1   
    24    13    14 1   
    25    13    16 1   
    26    13    31 1   
    27    13    32 1   
    28    14    15 1   
    29    14    33 1   
    30    14    34 1   
    31    15    35 1   
    32    15    36 1   
    33    16    37 1   
    34    16    38 1   
    35    17    18 1   
    36    17    20 1   
    37    17    39 1   
    38    18    40 1   
    39    20    21 1   
    40    20    23 1   
    41    20    41 1   
    42    21    42 1   
    43    23    24 1   
    44    23    25 1   
    45    23    43 1   
    46    25    26 1   
    47    25    44 1   
    48    25    45 1   
    49    26    46 1   
@<TRIPOS>SUBSTRUCTURE
     1 VMX         1 TEMP              0 ****  ****    0 ROOT
