@<TRIPOS>MOLECULE
VMX
   47    49     1     0     0
SMALL
abcg2


@<TRIPOS>ATOM
      1 S           -3.7700     0.4760     0.8670 s6         1 VMX       1.182100
      2 N1           5.0290    -2.1170     0.4830 nb         1 VMX      -0.300000
      3 C2           5.0850    -0.8000     0.6620 ca         1 VMX       0.188900
      4 N3           4.1240     0.0930     0.5010 nb         1 VMX      -0.216000
      5 C4           2.9860    -0.4750     0.1140 ca         1 VMX       0.148500
      6 C5           2.7720    -1.8260    -0.1100 ca         1 VMX      -0.105600
      7 C6           3.8770    -2.6740     0.0920 ca         1 VMX       0.453900
      8 N6           3.8210    -3.9920    -0.0990 nv         1 VMX      -1.061900
      9 N7           1.4760    -2.0580    -0.4930 nc         1 VMX      -0.546100
     10 C8           0.9280    -0.8810    -0.5050 cd         1 VMX       0.394700
     11 N9           1.7870     0.1240    -0.1500 na         1 VMX      -0.290300
     12 C1           1.4940     1.5300    -0.0550 c5         1 VMX       0.315300
     13 C10         -4.6010    -1.8370    -0.3590 c3         1 VMX      -0.046400
     14 C11         -4.2210    -3.1170    -1.0940 c3         1 VMX       0.154800
     15 N12         -5.4090    -3.9040    -1.3770 n8         1 VMX      -0.995200
     16 C1S         -3.3670    -0.9920    -0.0760 c3         1 VMX      -0.350400
     17 C7           1.0640     2.1630    -1.3790 c5         1 VMX       0.082300
     18 O2           2.1920     2.5290    -2.1120 oh         1 VMX      -0.690000
     19 O2S         -4.6550     1.3080     0.0650 o          1 VMX      -0.521000
     20 C3           0.2040     3.3290    -0.8830 c5         1 VMX       0.112300
     21 O3           1.0050     4.3760    -0.4060 oh         1 VMX      -0.699000
     22 O3S         -4.1870     0.0600     2.1970 o          1 VMX      -0.521000
     23 C9          -0.5010     2.6850     0.3030 c5         1 VMX       0.158300
     24 O4           0.4250     1.7300     0.8330 os         1 VMX      -0.456000
     25 C12         -1.7940     1.9980    -0.1040 c3         1 VMX       0.185800
     26 N5          -2.3630     1.3170     1.0520 n7         1 VMX      -0.862300
     27 HN6          4.6160    -4.5680     0.1160 hn         1 VMX       0.507500
     28 HN6A         2.9580    -4.4450    -0.3420 hn         1 VMX       0.507500
     29 H8          -0.1010    -0.6840    -0.7650 h5         1 VMX       0.052800
     30 H1           2.4090     2.0070     0.3120 h2         1 VMX       0.130700
     31 H10         -5.3130    -1.2720    -0.9630 hc         1 VMX       0.067200
     32 H10A        -5.0950    -2.0950     0.5810 hc         1 VMX       0.067200
     33 H11         -3.7470    -2.8570    -2.0440 h1         1 VMX       0.028700
     34 H11A        -3.4640    -3.6530    -0.5050 h1         1 VMX       0.028700
     35 HN12        -5.1470    -4.7260    -1.9060 hn         1 VMX       0.395500
     36 HN1A        -5.7940    -4.2530    -0.5070 hn         1 VMX       0.395500
     37 H1S         -2.8970    -0.6610    -1.0050 h1         1 VMX       0.086700
     38 H1SA        -2.6310    -1.5460     0.5110 h1         1 VMX       0.086700
     39 H2           0.4290     1.4650    -1.9390 h1         1 VMX       0.049700
     40 HO2          1.9410     2.6490    -3.0340 ho         1 VMX       0.518000
     41 H3          -0.5070     3.6710    -1.6460 h1         1 VMX       0.061700
     42 HO3          1.6940     4.5460    -1.0600 ho         1 VMX       0.526000
     43 H4          -0.7170     3.4210     1.0820 h1         1 VMX       0.118700
     44 H5          -2.4900     2.7630    -0.4470 h1         1 VMX       0.054700
     45 H5'A        -1.6170     1.3190    -0.9470 h1         1 VMX       0.054700
     46 HN5         -1.6890     0.8070     1.6150 hn         1 VMX       0.496000
     47 H6           6.0480    -0.4130     0.9800 h5         1 VMX       0.050100
@<TRIPOS>BOND
     1     1    16 1   
     2     1    19 2   
     3     1    22 2   
     4     1    26 1   
     5     2     3 ar  
     6     2     7 ar  
     7     3     4 ar  
     8     3    47 1   
     9     4     5 ar  
    10     5     6 ar  
    11     5    11 1   
    12     6     7 ar  
    13     6     9 1   
    14     7     8 1   
    15     8    27 1   
    16     8    28 1   
    17     9    10 2   
    18    10    11 1   
    19    10    29 1   
    20    11    12 1   
    21    12    17 1   
    22    12    24 1   
    23    12    30 1   
    24    13    14 1   
    25    13    16 1   
    26    13    31 1   
    27    13    32 1   
    28    14    15 1   
    29    14    33 1   
    30    14    34 1   
    31    15    35 1   
    32    15    36 1   
    33    16    37 1   
    34    16    38 1   
    35    17    18 1   
    36    17    20 1   
    37    17    39 1   
    38    18    40 1   
    39    20    21 1   
    40    20    23 1   
    41    20    41 1   
    42    21    42 1   
    43    23    24 1   
    44    23    25 1   
    45    23    43 1   
    46    25    26 1   
    47    25    44 1   
    48    25    45 1   
    49    26    46 1   
@<TRIPOS>SUBSTRUCTURE
     1 VMX         1 TEMP              0 ****  ****    0 ROOT
