@<TRIPOS>MOLECULE
VMY
   45    48     1     0     0
SMALL
bcc


@<TRIPOS>ATOM
      1 F1          -5.5490    -1.7070    -1.5710 f          1 VMY      -0.133900
      2 C13         -5.7060    -0.3900    -1.3910 ca         1 VMY       0.187900
      3 C14         -6.0560     0.3880    -2.4780 ca         1 VMY      -0.192000
      4 C15         -6.2140     1.7520    -2.2890 ca         1 VMY      -0.064000
      5 C16         -6.0260     2.3250    -1.0390 ca         1 VMY      -0.192000
      6 C17         -5.6810     1.4990     0.0110 ca         1 VMY       0.187900
      7 F           -5.4920     2.0390     1.2230 f          1 VMY      -0.133900
      8 C12         -5.5160     0.1260    -0.1170 ca         1 VMY      -0.200300
      9 C11         -5.1190    -0.7290     1.0540 c3         1 VMY       0.126600
     10 N4          -3.7030    -0.6340     1.3260 na         1 VMY       0.109400
     11 C10         -3.1000    -0.0480     2.3700 cc         1 VMY      -0.117300
     12 C9          -1.7420    -0.1520     2.1720 cd         1 VMY      -0.300300
     13 N5          -2.8300    -1.1120     0.4380 nc         1 VMY      -0.579800
     14 C8          -1.6430    -0.8290     0.9410 cd         1 VMY       0.561200
     15 N3          -0.5290    -1.2200     0.2160 nu         1 VMY      -0.819600
     16 C7           0.7590    -1.0680     0.5870 cc         1 VMY       0.671300
     17 N2           1.1620    -0.5060     1.6900 nd         1 VMY      -0.406000
     18 N1           2.5100    -0.5040     1.7960 nd         1 VMY      -0.299000
     19 S1           2.0510    -1.6510    -0.4210 ss         1 VMY      -0.250800
     20 C6           3.1120    -1.0440     0.8050 cc         1 VMY       0.362700
     21 C4           4.6060    -1.1450     0.6270 c3         1 VMY       0.122200
     22 C5           5.2610    -1.6390     1.9160 c3         1 VMY      -0.093100
     23 O            4.8430    -2.0300    -0.4300 oh         1 VMY      -0.598800
     24 C3           5.1440     0.2210     0.2500 cc         1 VMY       0.366700
     25 S            4.9910     1.6230     1.2270 ss         1 VMY      -0.075300
     26 C2           5.8780     2.5010     0.0470 cc         1 VMY      -0.221400
     27 N            5.7890     0.4000    -0.8530 nd         1 VMY      -0.674000
     28 C1           6.2180     1.6960    -0.9930 cd         1 VMY       0.368600
     29 C            6.9780     2.0990    -2.2100 c3         1 VMY      -0.119400
     30 H14         -6.1990    -0.0650    -3.4500 ha         1 VMY       0.158000
     31 H15         -6.4860     2.3780    -3.1280 ha         1 VMY       0.142000
     32 H16         -6.1460     3.3890    -0.8820 ha         1 VMY       0.158000
     33 H111        -5.6470    -0.4240     1.9550 h1         1 VMY       0.077200
     34 H112        -5.3720    -1.7720     0.8770 h1         1 VMY       0.077200
     35 H10         -3.6600     0.3940     3.1780 h4         1 VMY       0.175000
     36 H9          -0.9530     0.1980     2.8110 ha         1 VMY       0.194000
     37 H3          -0.7240    -1.6820    -0.6580 hn         1 VMY       0.466800
     38 H51C         4.9100    -2.6440     2.1490 hc         1 VMY       0.057367
     39 H52C         6.3450    -1.6620     1.7990 hc         1 VMY       0.057367
     40 H53C         5.0170    -0.9900     2.7550 hc         1 VMY       0.057367
     41 H            5.3530    -1.5550    -1.1050 ho         1 VMY       0.452000
     42 H2           6.0940     3.5500     0.1760 h4         1 VMY       0.180000
     43 HC1          7.8670     1.4810    -2.3360 hc         1 VMY       0.050700
     44 HC2          6.3680     1.9790    -3.1070 hc         1 VMY       0.050700
     45 HC3          7.2910     3.1390    -2.1490 hc         1 VMY       0.050700
@<TRIPOS>BOND
     1     1     2 1   
     2     2     3 ar  
     3     2     8 ar  
     4     3     4 ar  
     5     3    30 1   
     6     4     5 ar  
     7     4    31 1   
     8     5     6 ar  
     9     5    32 1   
    10     6     7 1   
    11     6     8 ar  
    12     8     9 1   
    13     9    10 1   
    14     9    33 1   
    15     9    34 1   
    16    10    11 1   
    17    10    13 1   
    18    11    12 2   
    19    11    35 1   
    20    12    14 1   
    21    12    36 1   
    22    13    14 2   
    23    14    15 1   
    24    15    16 1   
    25    15    37 1   
    26    16    17 2   
    27    16    19 1   
    28    17    18 1   
    29    18    20 2   
    30    19    20 1   
    31    20    21 1   
    32    21    22 1   
    33    21    23 1   
    34    21    24 1   
    35    22    38 1   
    36    22    39 1   
    37    22    40 1   
    38    23    41 1   
    39    24    25 1   
    40    24    27 2   
    41    25    26 1   
    42    26    28 2   
    43    26    42 1   
    44    27    28 1   
    45    28    29 1   
    46    29    43 1   
    47    29    44 1   
    48    29    45 1   
@<TRIPOS>SUBSTRUCTURE
     1 VMY         1 TEMP              0 ****  ****    0 ROOT
