@<TRIPOS>MOLECULE
VMY
   45    48     1     0     0
SMALL
No Charge or Current Charge


@<TRIPOS>ATOM
      1 F1          -4.9120    -0.4570    -2.5960 f          1 VMY      -0.169000
      2 C13         -5.5170     0.4010    -1.7440 ca         1 VMY       0.223000
      3 C14         -6.0490     1.5980    -2.2490 ca         1 VMY      -0.174000
      4 C15         -6.6840     2.5080    -1.3890 ca         1 VMY      -0.046000
      5 C16         -6.7810     2.2130    -0.0190 ca         1 VMY      -0.174000
      6 C17         -6.2480     1.0150     0.4840 ca         1 VMY       0.223000
      7 F           -6.3550     0.7550     1.8060 f          1 VMY      -0.169000
      8 C12         -5.6120     0.0950    -0.3720 ca         1 VMY      -0.200300
      9 C11         -5.0240    -1.2030     0.1830 c3         1 VMY       0.155900
     10 N4          -3.6540    -1.0420     0.7070 na         1 VMY       0.130800
     11 C10         -3.3110    -0.6520     2.0030 cc         1 VMY      -0.150000
     12 C9          -1.9450    -0.6460     1.9840 cd         1 VMY      -0.217000
     13 N5          -2.5600    -1.2800    -0.1100 nc         1 VMY      -0.579800
     14 C8          -1.5620    -1.0310     0.6900 cd         1 VMY       0.495900
     15 N3          -0.3150    -1.1680     0.1990 nu         1 VMY      -0.874800
     16 C7           0.9290    -0.9950     0.7250 cc         1 VMY       0.671300
     17 N2           1.1390    -0.6090     1.9700 nd         1 VMY      -0.406000
     18 N1           2.4880    -0.5040     2.2570 nd         1 VMY      -0.299000
     19 S1           2.3490    -1.2590    -0.2230 ss         1 VMY      -0.250800
     20 C6           3.2430    -0.8230     1.2100 cc         1 VMY       0.362700
     21 C4           4.7710    -0.7840     1.1950 c3         1 VMY       0.145400
     22 C5           5.3750    -0.5090     2.5980 c3         1 VMY      -0.093100
     23 O            5.3010    -2.0670     0.7810 oh         1 VMY      -0.661000
     24 C3           5.2400     0.2780     0.2100 cc         1 VMY       0.366700
     25 S            4.6610     1.9240     0.2990 ss         1 VMY       0.069600
     26 C2           5.6570     2.2710    -1.0840 cc         1 VMY      -0.283000
     27 N            6.1050     0.0090    -0.7680 nd         1 VMY      -0.674000
     28 C1           6.3410     1.1560    -1.5070 cd         1 VMY       0.303300
     29 C            7.2860     1.1010    -2.6700 c3         1 VMY      -0.119400
     30 H14         -5.9680     1.8180    -3.3110 ha         1 VMY       0.140000
     31 H15         -7.0960     3.4370    -1.7800 ha         1 VMY       0.124000
     32 H16         -7.2700     2.9110     0.6560 ha         1 VMY       0.140000
     33 H111        -5.6590    -1.5820     0.9930 h1         1 VMY       0.077200
     34 H112        -5.0110    -1.9760    -0.5960 h1         1 VMY       0.077200
     35 H10         -4.0340    -0.4260     2.7770 h4         1 VMY       0.157000
     36 H9          -1.2960    -0.3930     2.8120 ha         1 VMY       0.176000
     37 H3          -0.3090    -1.4620    -0.7700 hn         1 VMY       0.522000
     38 H51C         5.0780    -1.2880     3.3110 hc         1 VMY       0.057367
     39 H52C         6.4710    -0.4930     2.5530 hc         1 VMY       0.057367
     40 H53C         5.0410     0.4590     2.9920 hc         1 VMY       0.057367
     41 H            5.8740    -1.8530     0.0030 ho         1 VMY       0.491000
     42 H2           5.6770     3.2700    -1.4960 h4         1 VMY       0.162000
     43 HC1          8.2870     0.7930    -2.3460 hc         1 VMY       0.050700
     44 HC2          6.9380     0.3860    -3.4240 hc         1 VMY       0.050700
     45 HC3          7.3770     2.0810    -3.1540 hc         1 VMY       0.050700
@<TRIPOS>BOND
     1     1     2 1   
     2     2     3 ar  
     3     2     8 ar  
     4     3     4 ar  
     5     3    30 1   
     6     4     5 ar  
     7     4    31 1   
     8     5     6 ar  
     9     5    32 1   
    10     6     7 1   
    11     6     8 ar  
    12     8     9 1   
    13     9    10 1   
    14     9    33 1   
    15     9    34 1   
    16    10    11 1   
    17    10    13 1   
    18    11    12 2   
    19    11    35 1   
    20    12    14 1   
    21    12    36 1   
    22    13    14 2   
    23    14    15 1   
    24    15    16 1   
    25    15    37 1   
    26    16    17 2   
    27    16    19 1   
    28    17    18 1   
    29    18    20 2   
    30    19    20 1   
    31    20    21 1   
    32    21    22 1   
    33    21    23 1   
    34    21    24 1   
    35    22    38 1   
    36    22    39 1   
    37    22    40 1   
    38    23    41 1   
    39    24    25 1   
    40    24    27 2   
    41    25    26 1   
    42    26    28 2   
    43    26    42 1   
    44    27    28 1   
    45    28    29 1   
    46    29    43 1   
    47    29    44 1   
    48    29    45 1   
@<TRIPOS>SUBSTRUCTURE
     1 VMY         1 TEMP              0 ****  ****    0 ROOT
