@<TRIPOS>MOLECULE
VN0
   28    28     1     0     0
SMALL
No Charge or Current Charge


@<TRIPOS>ATOM
      1 CAA         26.6670   -18.5300    -4.2640 c5         1 VN0       0.163500
      2 CAB         27.7860   -19.3890    -3.5610 c5         1 VN0       0.159300
      3 CAC         28.7310   -18.2290    -3.1390 c5         1 VN0       0.108300
      4 CAD         27.6930   -17.2440    -2.5230 c5         1 VN0       0.120500
      5 CAF         25.3040   -19.2680    -4.4400 c3         1 VN0       0.180600
      6 CAJ         28.3060   -15.8510    -2.2040 c3         1 VN0       0.141800
      7 CAL         30.2040   -14.7320    -1.0260 c3         1 VN0       0.143100
      8 NAE         26.5700   -17.2260    -3.5060 n7         1 VN0      -0.836400
      9 NAK         29.3930   -15.9550    -1.1940 n7         1 VN0      -0.879400
     10 OAG         27.3300   -20.1470    -2.4270 oh         1 VN0      -0.660000
     11 OAH         29.7390   -18.6040    -2.1940 oh         1 VN0      -0.669000
     12 OAI         24.4000   -18.5190    -5.2770 oh         1 VN0      -0.667000
     13 H1          27.0250   -18.3040    -5.2790 h1         1 VN0       0.045700
     14 H2          28.2770   -20.0550    -4.2850 h1         1 VN0       0.054700
     15 H3          29.2030   -17.7810    -4.0250 h1         1 VN0       0.036700
     16 H4          27.3210   -17.6540    -1.5720 h1         1 VN0       0.080700
     17 H5          24.8580   -19.4360    -3.4500 h1         1 VN0       0.035200
     18 H6          25.4960   -20.2530    -4.8870 h1         1 VN0       0.035200
     19 H7          28.6970   -15.4280    -3.1400 h1         1 VN0       0.042700
     20 H8          27.5130   -15.1820    -1.8440 h1         1 VN0       0.042700
     21 H9          30.9800   -14.8840    -0.2640 h1         1 VN0       0.035033
     22 H10         30.7010   -14.4600    -1.9670 h1         1 VN0       0.035033
     23 H11         29.5780   -13.8860    -0.7110 h1         1 VN0       0.035033
     24 H12         26.6980   -16.4590    -4.1770 hn         1 VN0       0.412000
     25 H14         28.9580   -16.1650    -0.2830 hn         1 VN0       0.413000
     26 H16         28.0880   -20.1320    -1.8000 ho         1 VN0       0.464000
     27 H17         29.9380   -17.7510    -1.7200 ho         1 VN0       0.485000
     28 H18         23.5380   -18.9910    -5.2580 ho         1 VN0       0.442000
@<TRIPOS>BOND
     1     1     2 1   
     2     1     5 1   
     3     1     8 1   
     4     1    13 1   
     5     2     3 1   
     6     2    10 1   
     7     2    14 1   
     8     3     4 1   
     9     3    11 1   
    10     3    15 1   
    11     4     6 1   
    12     4     8 1   
    13     4    16 1   
    14     5    12 1   
    15     5    17 1   
    16     5    18 1   
    17     6     9 1   
    18     6    19 1   
    19     6    20 1   
    20     7     9 1   
    21     7    21 1   
    22     7    22 1   
    23     7    23 1   
    24     8    24 1   
    25     9    25 1   
    26    10    26 1   
    27    11    27 1   
    28    12    28 1   
@<TRIPOS>SUBSTRUCTURE
     1 VN0         1 TEMP              0 ****  ****    0 ROOT
