@<TRIPOS>MOLECULE
VN0
   28    28     1     0     0
SMALL
abcg2


@<TRIPOS>ATOM
      1 CAA         26.7120   -18.5040    -4.2710 c5         1 VN0       0.163500
      2 CAB         27.8400   -19.3170    -3.6210 c5         1 VN0       0.159300
      3 CAC         28.7270   -18.2070    -3.0710 c5         1 VN0       0.108300
      4 CAD         27.6870   -17.2280    -2.5260 c5         1 VN0       0.120500
      5 CAF         25.3830   -19.2320    -4.3280 c3         1 VN0       0.180600
      6 CAJ         28.2710   -15.8560    -2.2510 c3         1 VN0       0.141800
      7 CAL         30.1080   -14.7860    -1.0810 c3         1 VN0       0.143100
      8 NAE         26.6230   -17.2350    -3.5210 n7         1 VN0      -0.836400
      9 NAK         29.3050   -15.9850    -1.2320 n7         1 VN0      -0.879400
     10 OAG         27.3340   -20.1220    -2.5810 oh         1 VN0      -0.660000
     11 OAH         29.6510   -18.6760    -2.1290 oh         1 VN0      -0.669000
     12 OAI         24.5000   -18.4590    -5.1130 oh         1 VN0      -0.667000
     13 H1          27.0180   -18.3050    -5.3050 h1         1 VN0       0.045700
     14 H2          28.3560   -19.9330    -4.3700 h1         1 VN0       0.054700
     15 H3          29.2320   -17.7230    -3.9240 h1         1 VN0       0.036700
     16 H4          27.2990   -17.6250    -1.5760 h1         1 VN0       0.080700
     17 H5          24.9970   -19.3720    -3.3120 h1         1 VN0       0.035200
     18 H6          25.5330   -20.2300    -4.7610 h1         1 VN0       0.035200
     19 H7          28.7360   -15.4740    -3.1670 h1         1 VN0       0.042700
     20 H8          27.4840   -15.1400    -1.9720 h1         1 VN0       0.042700
     21 H9          30.8190   -14.9200    -0.2660 h1         1 VN0       0.035033
     22 H10         30.6770   -14.6050    -1.9940 h1         1 VN0       0.035033
     23 H11         29.5180   -13.8850    -0.8730 h1         1 VN0       0.035033
     24 H12         26.7360   -16.4560    -4.1570 hn         1 VN0       0.412000
     25 H14         28.8580   -16.1890    -0.3460 hn         1 VN0       0.413000
     26 H16         28.0600   -20.2990    -1.9720 ho         1 VN0       0.464000
     27 H17         29.8990   -17.8830    -1.6180 ho         1 VN0       0.485000
     28 H18         23.6310   -18.8700    -5.0780 ho         1 VN0       0.442000
@<TRIPOS>BOND
     1     1     2 1   
     2     1     5 1   
     3     1     8 1   
     4     1    13 1   
     5     2     3 1   
     6     2    10 1   
     7     2    14 1   
     8     3     4 1   
     9     3    11 1   
    10     3    15 1   
    11     4     6 1   
    12     4     8 1   
    13     4    16 1   
    14     5    12 1   
    15     5    17 1   
    16     5    18 1   
    17     6     9 1   
    18     6    19 1   
    19     6    20 1   
    20     7     9 1   
    21     7    21 1   
    22     7    22 1   
    23     7    23 1   
    24     8    24 1   
    25     9    25 1   
    26    10    26 1   
    27    11    27 1   
    28    12    28 1   
@<TRIPOS>SUBSTRUCTURE
     1 VN0         1 TEMP              0 ****  ****    0 ROOT
