@<TRIPOS>MOLECULE
VN1
   66    68     1     0     0
SMALL
No Charge or Current Charge


@<TRIPOS>ATOM
      1 C1          28.5270   -43.2790     2.3830 c3         1 VN1      -0.085100
      2 C10         34.8280   -34.1720     4.1190 ca         1 VN1      -0.147900
      3 C11         35.7530   -33.0070     3.9070 ce         1 VN1       0.666800
      4 C12         34.8970   -35.3040     3.2710 ca         1 VN1      -0.126000
      5 C13         34.0540   -36.4210     3.4750 ca         1 VN1       0.097100
      6 C14         34.9990   -37.6320     1.5280 c3         1 VN1       0.147900
      7 C15         30.6220   -43.0920     4.5700 cc         1 VN1       0.158300
      8 C16         30.6780   -44.2510     5.2810 cd         1 VN1      -0.174000
      9 C18         33.1570   -45.8080     6.9240 c3         1 VN1      -0.102400
     10 C19         33.8050   -47.1100     7.4570 c3         1 VN1      -0.072400
     11 C2          28.9190   -41.9270     3.0360 c3         1 VN1      -0.062700
     12 C20         34.4760   -46.9680     8.8420 c3         1 VN1       0.153800
     13 C21         27.7580   -40.8910     2.9330 c3         1 VN1      -0.074400
     14 C22         26.4840   -41.2360     3.7370 c3         1 VN1      -0.094100
     15 C3          29.4670   -42.1170     4.4900 c3         1 VN1       0.085000
     16 C4          30.6800   -39.8760     4.7260 cc         1 VN1      -0.164000
     17 C5          30.6180   -38.9280     5.7090 cd         1 VN1       0.173300
     18 C6          31.3550   -37.6110     5.7950 c3         1 VN1       0.149300
     19 C7          33.1370   -36.4190     4.5500 ca         1 VN1       0.137100
     20 C8          33.0800   -35.3040     5.4140 ca         1 VN1      -0.187000
     21 C9          33.9200   -34.1990     5.2040 ca         1 VN1      -0.085000
     22 N1          29.8100   -40.8450     5.1590 na         1 VN1       0.127800
     23 N2          35.3880   -31.8050     4.4030 nv         1 VN1      -1.075200
     24 N3          36.8020   -33.0680     3.1960 n2         1 VN1      -0.835100
     25 N4          29.7360   -39.3440     6.6860 nd         1 VN1      -0.343000
     26 N5          29.2460   -40.5090     6.3550 nc         1 VN1      -0.212800
     27 N6          31.9350   -44.7380     5.0040 na         1 VN1       0.130800
     28 N7          33.5010   -46.6740     9.9100 n8         1 VN1      -1.001200
     29 N8          32.6000   -43.8900     4.1560 nd         1 VN1      -0.196800
     30 N9          31.7950   -42.8910     3.8950 nc         1 VN1      -0.355000
     31 O1          32.3210   -37.5240     4.7290 os         1 VN1      -0.322100
     32 H1          29.4010   -43.9330     2.2750 hc         1 VN1       0.040033
     33 H2          27.7810   -43.8090     2.9870 hc         1 VN1       0.040033
     34 H3          28.1090   -43.1210     1.3820 hc         1 VN1       0.040033
     35 H4          35.6070   -35.2960     2.4490 ha         1 VN1       0.142000
     36 H5          34.8630   -38.5930     1.0170 h1         1 VN1       0.037033
     37 H6          34.8100   -36.8310     0.8020 h1         1 VN1       0.037033
     38 H7          36.0430   -37.5700     1.8620 h1         1 VN1       0.037033
     39 H8          29.9620   -44.7410     5.9280 h4         1 VN1       0.177000
     40 H9          31.7840   -46.7570     5.5310 h1         1 VN1       0.071700
     41 H10         33.3340   -46.2870     4.8110 h1         1 VN1       0.071700
     42 H11         33.9110   -45.0110     6.8990 hc         1 VN1       0.061700
     43 H12         32.3670   -45.4810     7.6110 hc         1 VN1       0.061700
     44 H13         33.0500   -47.9050     7.5010 hc         1 VN1       0.048700
     45 H14         34.5680   -47.4430     6.7420 hc         1 VN1       0.048700
     46 H15         29.7420   -41.5210     2.4320 hc         1 VN1       0.068700
     47 H16         34.9890   -47.9070     9.0920 h1         1 VN1       0.029700
     48 H17         35.2250   -46.1650     8.8110 h1         1 VN1       0.029700
     49 H18         28.1160   -39.9040     3.2510 hc         1 VN1       0.043700
     50 H19         27.4800   -40.7770     1.8780 hc         1 VN1       0.043700
     51 H20         25.7250   -40.4580     3.5910 hc         1 VN1       0.036700
     52 H21         26.0540   -42.1900     3.4100 hc         1 VN1       0.036700
     53 H22         26.6960   -41.2980     4.8110 hc         1 VN1       0.036700
     54 H23         28.6540   -42.5660     5.0740 h1         1 VN1       0.092700
     55 H24         31.2460   -39.9310     3.8060 h4         1 VN1       0.182000
     56 H25         31.8520   -37.5470     6.7720 h1         1 VN1       0.049700
     57 H26         30.6250   -36.7950     5.7220 h1         1 VN1       0.049700
     58 H27         32.3950   -35.2780     6.2570 ha         1 VN1       0.122000
     59 H28         33.8660   -33.3650     5.9020 ha         1 VN1       0.118000
     60 H29         34.4180   -31.7430     4.6890 hn         1 VN1       0.459000
     61 H30         35.7430   -30.9930     3.9120 hn         1 VN1       0.459000
     62 H31         37.3500   -32.2180     3.3700 hn         1 VN1       0.369400
     63 H32         34.0050   -46.5420    10.7960 hn         1 VN1       0.396000
     64 H33         33.0830   -45.7530     9.7340 hn         1 VN1       0.396000
     65 C17         32.5510   -45.9720     5.5120 c3         1 VN1       0.077600
     66 O2          34.0980   -37.5330     2.6460 os         1 VN1      -0.323100
@<TRIPOS>BOND
     1     1    11 1   
     2     1    32 1   
     3     1    33 1   
     4     1    34 1   
     5     2     3 1   
     6     2     4 ar  
     7     2    21 ar  
     8     3    23 1   
     9     3    24 2   
    10     4     5 ar  
    11     4    35 1   
    12     5    19 ar  
    13     5    66 1   
    14     6    36 1   
    15     6    37 1   
    16     6    38 1   
    17     6    66 1   
    18     7     8 2   
    19     7    15 1   
    20     7    30 1   
    21     8    27 1   
    22     8    39 1   
    23     9    10 1   
    24     9    42 1   
    25     9    43 1   
    26     9    65 1   
    27    10    12 1   
    28    10    44 1   
    29    10    45 1   
    30    11    13 1   
    31    11    15 1   
    32    11    46 1   
    33    12    28 1   
    34    12    47 1   
    35    12    48 1   
    36    13    14 1   
    37    13    49 1   
    38    13    50 1   
    39    14    51 1   
    40    14    52 1   
    41    14    53 1   
    42    15    22 1   
    43    15    54 1   
    44    16    17 2   
    45    16    22 1   
    46    16    55 1   
    47    17    18 1   
    48    17    25 1   
    49    18    31 1   
    50    18    56 1   
    51    18    57 1   
    52    19    20 ar  
    53    19    31 1   
    54    20    21 ar  
    55    20    58 1   
    56    21    59 1   
    57    22    26 1   
    58    23    60 1   
    59    23    61 1   
    60    24    62 1   
    61    25    26 2   
    62    27    29 1   
    63    27    65 1   
    64    28    63 1   
    65    28    64 1   
    66    29    30 2   
    67    40    65 1   
    68    41    65 1   
@<TRIPOS>SUBSTRUCTURE
     1 VN1         1 TEMP              0 ****  ****    0 ROOT
