@<TRIPOS>MOLECULE
VN1
   66    68     1     0     0
SMALL
bcc


@<TRIPOS>ATOM
      1 C1          27.2250   -43.6320     2.6980 c3         1 VN1      -0.085100
      2 C10         35.2560   -35.4920     4.8600 ca         1 VN1      -0.147900
      3 C11         36.4360   -34.5880     4.7990 ce         1 VN1       0.666800
      4 C12         35.4560   -36.8400     5.1850 ca         1 VN1      -0.144000
      5 C13         34.3960   -37.7210     5.2600 ca         1 VN1       0.097100
      6 C14         35.7880   -39.5620     5.7830 c3         1 VN1       0.124700
      7 C15         29.8110   -43.1370     4.1770 cc         1 VN1       0.223600
      8 C16         30.4370   -43.8790     5.1450 cd         1 VN1      -0.206600
      9 C18         33.7050   -44.1150     5.6540 c3         1 VN1      -0.102400
     10 C19         34.8710   -44.8530     6.3000 c3         1 VN1      -0.072400
     11 C2          27.7260   -42.2300     3.0350 c3         1 VN1      -0.062700
     12 C20         35.9850   -43.9210     6.7560 c3         1 VN1       0.153800
     13 C21         26.5740   -41.2260     3.1530 c3         1 VN1      -0.074400
     14 C22         25.5660   -41.5010     4.2620 c3         1 VN1      -0.094100
     15 C3          28.5920   -42.2810     4.3030 c3         1 VN1       0.055700
     16 C4          29.8620   -40.1140     4.0820 cc         1 VN1      -0.196600
     17 C5          29.9480   -39.0290     4.9170 cd         1 VN1       0.238600
     18 C6          30.7850   -37.8120     4.7820 c3         1 VN1       0.126100
     19 C7          33.0840   -37.2550     5.0190 ca         1 VN1       0.137100
     20 C8          32.8860   -35.9210     4.7080 ca         1 VN1      -0.205000
     21 C9          33.9670   -35.0440     4.6280 ca         1 VN1      -0.103000
     22 N1          29.0180   -40.9430     4.7130 na         1 VN1       0.106400
     23 N2          36.2580   -33.4380     4.0800 nv         1 VN1      -0.964800
     24 N3          37.4920   -34.9090     5.4430 n2         1 VN1      -0.835100
     25 N4          29.1600   -39.2660     5.9870 nd         1 VN1      -0.343000
     26 N5          28.6040   -40.4190     5.8550 nc         1 VN1      -0.212800
     27 N6          31.5340   -44.3530     4.5360 na         1 VN1       0.109400
     28 N7          35.5450   -43.0330     7.8240 n8         1 VN1      -0.890800
     29 N8          31.5960   -43.9350     3.2850 nd         1 VN1      -0.196800
     30 N9          30.5600   -43.2050     3.0570 nc         1 VN1      -0.355000
     31 O1          32.1160   -38.1820     5.1160 os         1 VN1      -0.298900
     32 H1          28.0430   -44.3070     2.4500 hc         1 VN1       0.040033
     33 H2          26.6730   -44.0750     3.5280 hc         1 VN1       0.040033
     34 H3          26.5580   -43.5960     1.8370 hc         1 VN1       0.040033
     35 H4          36.4670   -37.1750     5.3670 ha         1 VN1       0.160000
     36 H5          35.6520   -40.6190     5.9970 h1         1 VN1       0.037033
     37 H6          36.4380   -39.4590     4.9100 h1         1 VN1       0.037033
     38 H7          36.2760   -39.0920     6.6410 h1         1 VN1       0.037033
     39 H8          30.1950   -44.0900     6.1730 h4         1 VN1       0.195000
     40 H9          32.2450   -45.6940     5.9330 h1         1 VN1       0.071700
     41 H10         33.0550   -45.7390     4.3690 h1         1 VN1       0.071700
     42 H11         34.0700   -43.5000     4.8260 hc         1 VN1       0.061700
     43 H12         33.2340   -43.4390     6.3720 hc         1 VN1       0.061700
     44 H13         34.5150   -45.4350     7.1560 hc         1 VN1       0.048700
     45 H14         35.2880   -45.5680     5.5850 hc         1 VN1       0.048700
     46 H15         28.3620   -41.8930     2.2100 hc         1 VN1       0.068700
     47 H16         36.8090   -44.5260     7.1420 h1         1 VN1       0.029700
     48 H17         36.3790   -43.3890     5.8780 h1         1 VN1       0.029700
     49 H18         26.9740   -40.2160     3.2690 hc         1 VN1       0.043700
     50 H19         26.0550   -41.2220     2.1910 hc         1 VN1       0.043700
     51 H20         24.7550   -40.7730     4.2230 hc         1 VN1       0.036700
     52 H21         25.1160   -42.4900     4.1700 hc         1 VN1       0.036700
     53 H22         26.0120   -41.4290     5.2540 hc         1 VN1       0.036700
     54 H23         27.9960   -42.6540     5.1380 h1         1 VN1       0.092700
     55 H24         30.3250   -40.3470     3.1380 h4         1 VN1       0.200000
     56 H25         30.4140   -37.0330     5.4550 h1         1 VN1       0.049700
     57 H26         30.7440   -37.4250     3.7590 h1         1 VN1       0.049700
     58 H27         31.8920   -35.5350     4.5280 ha         1 VN1       0.140000
     59 H28         33.7670   -34.0050     4.4040 ha         1 VN1       0.136000
     60 H29         35.6180   -33.4520     3.3030 hn         1 VN1       0.403800
     61 H30         37.0770   -32.8740     3.9110 hn         1 VN1       0.403800
     62 H31         38.2350   -34.2330     5.2930 hn         1 VN1       0.369400
     63 H32         36.3350   -42.4950     8.1580 hn         1 VN1       0.340800
     64 H33         34.8920   -42.3510     7.4600 hn         1 VN1       0.340800
     65 C17         32.6450   -45.0750     5.1300 c3         1 VN1       0.048300
     66 O2          34.5010   -39.0310     5.5490 os         1 VN1      -0.299900
@<TRIPOS>BOND
     1     1    11 1   
     2     1    32 1   
     3     1    33 1   
     4     1    34 1   
     5     2     3 1   
     6     2     4 ar  
     7     2    21 ar  
     8     3    23 1   
     9     3    24 2   
    10     4     5 ar  
    11     4    35 1   
    12     5    19 ar  
    13     5    66 1   
    14     6    36 1   
    15     6    37 1   
    16     6    38 1   
    17     6    66 1   
    18     7     8 2   
    19     7    15 1   
    20     7    30 1   
    21     8    27 1   
    22     8    39 1   
    23     9    10 1   
    24     9    42 1   
    25     9    43 1   
    26     9    65 1   
    27    10    12 1   
    28    10    44 1   
    29    10    45 1   
    30    11    13 1   
    31    11    15 1   
    32    11    46 1   
    33    12    28 1   
    34    12    47 1   
    35    12    48 1   
    36    13    14 1   
    37    13    49 1   
    38    13    50 1   
    39    14    51 1   
    40    14    52 1   
    41    14    53 1   
    42    15    22 1   
    43    15    54 1   
    44    16    17 2   
    45    16    22 1   
    46    16    55 1   
    47    17    18 1   
    48    17    25 1   
    49    18    31 1   
    50    18    56 1   
    51    18    57 1   
    52    19    20 ar  
    53    19    31 1   
    54    20    21 ar  
    55    20    58 1   
    56    21    59 1   
    57    22    26 1   
    58    23    60 1   
    59    23    61 1   
    60    24    62 1   
    61    25    26 2   
    62    27    29 1   
    63    27    65 1   
    64    28    63 1   
    65    28    64 1   
    66    29    30 2   
    67    40    65 1   
    68    41    65 1   
@<TRIPOS>SUBSTRUCTURE
     1 VN1         1 TEMP              0 ****  ****    0 ROOT
