@<TRIPOS>MOLECULE
VN2
   70    74     1     0     0
SMALL
abcg2


@<TRIPOS>ATOM
      1 C11         13.4740   -19.1860    21.2830 ca         1 VN2       0.338900
      2 C12         12.9920   -18.0380    20.6790 ca         1 VN2      -0.146000
      3 C13         11.6240   -17.8700    20.4560 cp         1 VN2       0.027000
      4 C14         11.0620   -16.6320    19.8740 cp         1 VN2      -0.006000
      5 C15         11.4930   -15.4000    20.4010 ca         1 VN2      -0.092000
      6 C16         11.0480   -14.2250    19.8380 ca         1 VN2      -0.060000
      7 C17         10.2180   -14.2380    18.7060 ca         1 VN2      -0.188300
      8 C18          9.8160   -15.4480    18.1670 ca         1 VN2      -0.060000
      9 C19         10.2590   -16.6390    18.7430 ca         1 VN2      -0.092000
     10 C2           4.9870   -19.0510    21.6680 c          1 VN2       0.605700
     11 C20          9.8100   -12.9470    18.0760 c3         1 VN2       0.345300
     12 C24          6.7860   -17.1510    19.8700 ca         1 VN2      -0.109300
     13 C25          6.5500   -15.8640    20.3570 ca         1 VN2      -0.056000
     14 C26          6.2210   -14.8350    19.4900 ca         1 VN2      -0.125000
     15 C27          6.0260   -15.0690    18.1280 ca         1 VN2      -0.044000
     16 C28          6.1520   -16.3790    17.6870 ca         1 VN2      -0.189300
     17 C29          6.5390   -17.4180    18.5280 ca         1 VN2      -0.048000
     18 C30          5.9500   -16.7110    16.2350 c3         1 VN2       0.336300
     19 C34          3.9700   -19.0410    22.7720 ca         1 VN2      -0.168600
     20 C35          4.3690   -19.2210    24.0900 ca         1 VN2       0.346900
     21 C37          2.2600   -18.8310    24.8550 ca         1 VN2       0.355900
     22 C38          1.7670   -18.5840    23.5740 ca         1 VN2      -0.156000
     23 C39          2.6760   -18.5480    22.5130 cp         1 VN2       0.031000
     24 C4           7.1360   -18.2840    20.8320 c3         1 VN2       0.081000
     25 C40          2.1900   -18.3000    21.1310 cp         1 VN2      -0.019000
     26 C41          1.0980   -18.9970    20.6140 ca         1 VN2      -0.092500
     27 C42          0.6650   -18.7700    19.3170 ca         1 VN2      -0.052000
     28 C43          1.2500   -17.7390    18.5740 ca         1 VN2      -0.184300
     29 C44          2.3490   -17.0470    19.0720 ca         1 VN2      -0.052000
     30 C45          2.7910   -17.3010    20.3580 ca         1 VN2      -0.092500
     31 C46          0.7320   -17.5040    17.1890 c3         1 VN2       0.342300
     32 C5           8.5800   -18.2550    21.2930 c          1 VN2       0.595100
     33 C8          10.8280   -18.9770    20.7550 ca         1 VN2      -0.111000
     34 C9          11.4000   -20.1270    21.3060 ca         1 VN2       0.330900
     35 F21          9.1600   -12.1470    18.9950 f          1 VN2      -0.112667
     36 F22         10.8470   -12.2190    17.6400 f          1 VN2      -0.112667
     37 F23          8.9280   -13.1040    17.0740 f          1 VN2      -0.112667
     38 F31          5.2730   -15.7020    15.5850 f          1 VN2      -0.111667
     39 F32          7.1060   -16.8440    15.5530 f          1 VN2      -0.111667
     40 F33          5.2280   -17.8250    16.0260 f          1 VN2      -0.111667
     41 F47          0.6820   -18.6360    16.4500 f          1 VN2      -0.112000
     42 F48         -0.5040   -16.9630    17.1840 f          1 VN2      -0.112000
     43 F49          1.5190   -16.6440    16.4870 f          1 VN2      -0.112000
     44 N10         12.7090   -20.2720    21.4870 nb         1 VN2      -0.648000
     45 N3           6.1750   -18.4500    21.8890 ns         1 VN2      -0.491900
     46 N36          3.5320   -19.0780    25.1340 nb         1 VN2      -0.653000
     47 N7           9.4200   -18.9710    20.5100 ns         1 VN2      -0.147000
     48 O1           4.7380   -19.6430    20.6170 o          1 VN2      -0.582100
     49 O6           8.9700   -17.4020    22.0870 o          1 VN2      -0.571100
     50 H1          14.5320   -19.3220    21.4680 h4         1 VN2       0.029100
     51 H2          13.6800   -17.2050    20.5400 ha         1 VN2       0.131000
     52 H3          12.1290   -15.3510    21.2710 ha         1 VN2       0.125500
     53 H4          11.3340   -13.2450    20.1950 ha         1 VN2       0.133000
     54 H5           9.1910   -15.5390    17.2940 ha         1 VN2       0.133000
     55 H6           9.9830   -17.5880    18.3000 ha         1 VN2       0.125500
     56 H7           6.7160   -15.6560    21.4120 ha         1 VN2       0.134000
     57 H8           6.1340   -13.8250    19.8790 ha         1 VN2       0.128000
     58 H9           5.6990   -14.2540    17.5050 ha         1 VN2       0.145000
     59 H10          6.5710   -18.4400    18.1790 ha         1 VN2       0.136000
     60 H11          5.3620   -19.5650    24.3560 h4         1 VN2       0.026100
     61 H12          1.5480   -18.7390    25.6740 h4         1 VN2       0.026100
     62 H13          0.7600   -18.2560    23.3600 ha         1 VN2       0.137000
     63 H14          7.0120   -19.1530    20.1650 h1         1 VN2       0.067700
     64 H15          0.6770   -19.7940    21.2120 ha         1 VN2       0.123500
     65 H16         -0.1720   -19.3200    18.9130 ha         1 VN2       0.133000
     66 H17          2.7510   -16.2270    18.4930 ha         1 VN2       0.133000
     67 H18          3.6130   -16.7350    20.7830 ha         1 VN2       0.123500
     68 H19         10.7500   -20.9910    21.4330 h4         1 VN2       0.022100
     69 H20          6.4580   -18.2580    22.8380 hn         1 VN2       0.334500
     70 H21          9.0620   -19.7110    19.9250 hn         1 VN2       0.164000
@<TRIPOS>BOND
     1     1     2 ar  
     2     1    44 ar  
     3     1    50 1   
     4     2     3 ar  
     5     2    51 1   
     6     3     4 1   
     7     3    33 ar  
     8     4     5 ar  
     9     4     9 ar  
    10     5     6 ar  
    11     5    52 1   
    12     6     7 ar  
    13     6    53 1   
    14     7     8 ar  
    15     7    11 1   
    16     8     9 ar  
    17     8    54 1   
    18     9    55 1   
    19    10    19 1   
    20    10    45 1   
    21    10    48 2   
    22    11    35 1   
    23    11    36 1   
    24    11    37 1   
    25    12    13 ar  
    26    12    17 ar  
    27    12    24 1   
    28    13    14 ar  
    29    13    56 1   
    30    14    15 ar  
    31    14    57 1   
    32    15    16 ar  
    33    15    58 1   
    34    16    17 ar  
    35    16    18 1   
    36    17    59 1   
    37    18    38 1   
    38    18    39 1   
    39    18    40 1   
    40    19    20 ar  
    41    19    23 ar  
    42    20    46 ar  
    43    20    60 1   
    44    21    22 ar  
    45    21    46 ar  
    46    21    61 1   
    47    22    23 ar  
    48    22    62 1   
    49    23    25 1   
    50    24    32 1   
    51    24    45 1   
    52    24    63 1   
    53    25    26 ar  
    54    25    30 ar  
    55    26    27 ar  
    56    26    64 1   
    57    27    28 ar  
    58    27    65 1   
    59    28    29 ar  
    60    28    31 1   
    61    29    30 ar  
    62    29    66 1   
    63    30    67 1   
    64    31    41 1   
    65    31    42 1   
    66    31    43 1   
    67    32    47 1   
    68    32    49 2   
    69    33    34 ar  
    70    33    47 1   
    71    34    44 ar  
    72    34    68 1   
    73    45    69 1   
    74    47    70 1   
@<TRIPOS>SUBSTRUCTURE
     1 VN2         1 TEMP              0 ****  ****    0 ROOT
