@<TRIPOS>MOLECULE
VN2
   70    74     1     0     0
SMALL
No Charge or Current Charge


@<TRIPOS>ATOM
      1 C11         13.6210   -17.9650    21.8460 ca         1 VN2       0.338900
      2 C12         13.0230   -17.1710    20.8550 ca         1 VN2      -0.146000
      3 C13         11.6710   -17.3750    20.5020 cp         1 VN2       0.027000
      4 C14         11.0130   -16.5170    19.4700 cp         1 VN2      -0.006000
      5 C15         11.0260   -15.1090    19.5970 ca         1 VN2      -0.092000
      6 C16         10.3990   -14.2890    18.6440 ca         1 VN2      -0.060000
      7 C17          9.7420   -14.8560    17.5320 ca         1 VN2      -0.188300
      8 C18          9.7360   -16.2600    17.3870 ca         1 VN2      -0.060000
      9 C19         10.3640   -17.0760    18.3440 ca         1 VN2      -0.092000
     10 C2           4.8010   -19.6040    21.5880 c          1 VN2       0.605700
     11 C20          9.0770   -13.9430    16.4960 c3         1 VN2       0.345300
     12 C24          6.9160   -17.6830    20.2240 ca         1 VN2      -0.109300
     13 C25          7.1440   -16.4120    20.7910 ca         1 VN2      -0.056000
     14 C26          6.9080   -15.2520    20.0370 ca         1 VN2      -0.125000
     15 C27          6.4270   -15.3460    18.7210 ca         1 VN2      -0.044000
     16 C28          6.1750   -16.6100    18.1460 ca         1 VN2      -0.189300
     17 C29          6.4320   -17.7710    18.9040 ca         1 VN2      -0.048000
     18 C30          5.6270   -16.7490    16.7220 c3         1 VN2       0.336300
     19 C34          3.7700   -19.5810    22.6660 ca         1 VN2      -0.168600
     20 C35          3.9930   -20.1970    23.9050 ca         1 VN2       0.346900
     21 C37          1.8690   -19.6340    24.6350 ca         1 VN2       0.355900
     22 C38          1.5750   -18.9800    23.4270 ca         1 VN2      -0.156000
     23 C39          2.5400   -18.9230    22.3960 cp         1 VN2       0.031000
     24 C4           7.1700   -18.9630    21.0280 c3         1 VN2       0.081000
     25 C40          2.2600   -18.1530    21.1440 cp         1 VN2      -0.019000
     26 C41          1.0930   -18.3990    20.3860 ca         1 VN2      -0.092500
     27 C42          0.8260   -17.6750    19.2110 ca         1 VN2      -0.052000
     28 C43          1.7140   -16.6740    18.7670 ca         1 VN2      -0.184300
     29 C44          2.8750   -16.4090    19.5250 ca         1 VN2      -0.052000
     30 C45          3.1390   -17.1360    20.6970 ca         1 VN2      -0.092500
     31 C46          1.4050   -15.9040    17.4790 c3         1 VN2       0.342300
     32 C5           8.5470   -18.9400    21.7510 c          1 VN2       0.595100
     33 C8          10.9770   -18.3900    21.2090 ca         1 VN2      -0.111000
     34 C9          11.6540   -19.1350    22.2000 ca         1 VN2       0.330900
     35 F21          8.3620   -12.9560    17.0810 f          1 VN2      -0.112667
     36 F22          9.9980   -13.3470    15.7050 f          1 VN2      -0.112667
     37 F23          8.2270   -14.6040    15.6780 f          1 VN2      -0.112667
     38 F31          5.2460   -15.5690    16.1830 f          1 VN2      -0.111667
     39 F32          6.5490   -17.2830    15.8900 f          1 VN2      -0.111667
     40 F33          4.5460   -17.5600    16.6830 f          1 VN2      -0.111667
     41 F47          1.4470   -16.7150    16.3980 f          1 VN2      -0.112000
     42 F48          0.1690   -15.3560    17.5130 f          1 VN2      -0.112000
     43 F49          2.2720   -14.8920    17.2430 f          1 VN2      -0.112000
     44 N10         12.9550   -18.9350    22.5120 nb         1 VN2      -0.648000
     45 N3           6.0590   -19.2040    21.9710 ns         1 VN2      -0.491900
     46 N36          3.0580   -20.2300    24.8810 nb         1 VN2      -0.653000
     47 N7           9.5990   -18.5790    20.9240 ns         1 VN2      -0.147000
     48 O1           4.5550   -19.9720    20.4480 o          1 VN2      -0.582100
     49 O6           8.6840   -19.1830    22.9470 o          1 VN2      -0.571100
     50 H1          14.6650   -17.8180    22.1180 h4         1 VN2       0.029100
     51 H2          13.6110   -16.4040    20.3590 ha         1 VN2       0.131000
     52 H3          11.5200   -14.6510    20.4500 ha         1 VN2       0.125500
     53 H4          10.4270   -13.2080    18.7720 ha         1 VN2       0.133000
     54 H5           9.2520   -16.7280    16.5330 ha         1 VN2       0.133000
     55 H6          10.3580   -18.1550    18.2040 ha         1 VN2       0.125500
     56 H7           7.5050   -16.3190    21.8130 ha         1 VN2       0.134000
     57 H8           7.0950   -14.2740    20.4750 ha         1 VN2       0.128000
     58 H9           6.2450   -14.4320    18.1600 ha         1 VN2       0.145000
     59 H10          6.2400   -18.7490    18.4680 ha         1 VN2       0.136000
     60 H11          4.9350   -20.7010    24.1190 h4         1 VN2       0.026100
     61 H12          1.1320   -19.6720    25.4360 h4         1 VN2       0.026100
     62 H13          0.6100   -18.4980    23.3040 ha         1 VN2       0.137000
     63 H14          7.2160   -19.8110    20.3320 h1         1 VN2       0.067700
     64 H15          0.3960   -19.1690    20.7070 ha         1 VN2       0.123500
     65 H16         -0.0760   -17.8970    18.6420 ha         1 VN2       0.133000
     66 H17          3.5790   -15.6400    19.2160 ha         1 VN2       0.133000
     67 H18          4.0360   -16.9070    21.2680 ha         1 VN2       0.123500
     68 H19         11.1490   -19.9230    22.7560 h4         1 VN2       0.022100
     69 H20          6.1880   -18.9420    22.9420 hn         1 VN2       0.334500
     70 H21          9.3260   -18.3380    19.9800 hn         1 VN2       0.164000
@<TRIPOS>BOND
     1     1     2 ar  
     2     1    44 ar  
     3     1    50 1   
     4     2     3 ar  
     5     2    51 1   
     6     3     4 1   
     7     3    33 ar  
     8     4     5 ar  
     9     4     9 ar  
    10     5     6 ar  
    11     5    52 1   
    12     6     7 ar  
    13     6    53 1   
    14     7     8 ar  
    15     7    11 1   
    16     8     9 ar  
    17     8    54 1   
    18     9    55 1   
    19    10    19 1   
    20    10    45 1   
    21    10    48 2   
    22    11    35 1   
    23    11    36 1   
    24    11    37 1   
    25    12    13 ar  
    26    12    17 ar  
    27    12    24 1   
    28    13    14 ar  
    29    13    56 1   
    30    14    15 ar  
    31    14    57 1   
    32    15    16 ar  
    33    15    58 1   
    34    16    17 ar  
    35    16    18 1   
    36    17    59 1   
    37    18    38 1   
    38    18    39 1   
    39    18    40 1   
    40    19    20 ar  
    41    19    23 ar  
    42    20    46 ar  
    43    20    60 1   
    44    21    22 ar  
    45    21    46 ar  
    46    21    61 1   
    47    22    23 ar  
    48    22    62 1   
    49    23    25 1   
    50    24    32 1   
    51    24    45 1   
    52    24    63 1   
    53    25    26 ar  
    54    25    30 ar  
    55    26    27 ar  
    56    26    64 1   
    57    27    28 ar  
    58    27    65 1   
    59    28    29 ar  
    60    28    31 1   
    61    29    30 ar  
    62    29    66 1   
    63    30    67 1   
    64    31    41 1   
    65    31    42 1   
    66    31    43 1   
    67    32    47 1   
    68    32    49 2   
    69    33    34 ar  
    70    33    47 1   
    71    34    44 ar  
    72    34    68 1   
    73    45    69 1   
    74    47    70 1   
@<TRIPOS>SUBSTRUCTURE
     1 VN2         1 TEMP              0 ****  ****    0 ROOT
