@<TRIPOS>MOLECULE
VN5
   64    68     1     0     0
SMALL
abcg2


@<TRIPOS>ATOM
      1 C1         -21.9320   -26.5130     7.0960 ca         1 VN5      -0.171000
      2 C2         -21.4110   -25.3250     7.6830 ca         1 VN5       0.344000
      3 C3         -20.1650   -25.4020     8.2910 ca         1 VN5      -0.197000
      4 C11        -17.5350   -27.7150     8.8920 ca         1 VN5       0.230300
      5 C12        -16.2000   -27.7420     9.5680 cx         1 VN5      -0.126000
      6 C13        -15.2970   -28.8660     9.1840 ca         1 VN5      -0.060300
      7 C14        -14.5910   -28.8070     7.9820 ca         1 VN5      -0.058000
      8 C15        -13.7540   -29.8320     7.5860 ca         1 VN5      -0.176500
      9 C16        -13.5950   -30.9610     8.3950 ca         1 VN5       0.135100
     10 C17        -14.2930   -31.0380     9.5960 ca         1 VN5      -0.176500
     11 C18        -15.1350   -29.9940     9.9720 ca         1 VN5      -0.058000
     12 C19        -15.5620   -26.4230     9.9150 cx         1 VN5      -0.102400
     13 C20        -16.1750   -27.2410    10.9950 cx         1 VN5      -0.102400
     14 C22        -12.5490   -33.0630     8.7250 c3         1 VN5       0.149900
     15 C24        -21.5260   -22.9290     8.1160 c6         1 VN5       0.204800
     16 C25        -22.1990   -21.7040     7.5260 c6         1 VN5       0.153800
     17 C27        -24.1920   -22.9160     7.1550 c6         1 VN5       0.153800
     18 C28        -23.5660   -24.1610     7.7490 c6         1 VN5       0.204800
     19 C29        -24.2630   -20.5260     7.2520 c3         1 VN5       0.151100
     20 C30        -18.7390   -31.3170     7.3190 c3         1 VN5       0.236800
     21 C4         -19.4240   -26.5960     8.3080 ca         1 VN5       0.103000
     22 C5         -19.9560   -27.7610     7.7200 ca         1 VN5      -0.224000
     23 C6         -21.2250   -27.6820     7.1170 ca         1 VN5      -0.039000
     24 C7         -19.1270   -28.9290     7.7880 ca         1 VN5       0.414900
     25 N8         -17.9360   -28.8790     8.3640 nb         1 VN5      -0.290000
     26 N9         -19.5190   -30.0970     7.2640 nu         1 VN5      -0.927100
     27 N10        -18.2030   -26.5910     8.9020 nb         1 VN5      -0.242000
     28 O21        -12.7520   -31.9080     7.9390 os         1 VN5      -0.343100
     29 N23        -22.1180   -24.1430     7.5920 nh         1 VN5      -0.797400
     30 N26        -23.6280   -21.7250     7.7510 n3         1 VN5      -0.711600
     31 C31        -18.8280   -32.0410     8.6550 c3         1 VN5       0.121800
     32 N32        -20.2030   -32.4130     8.9530 n8         1 VN5      -1.003200
     33 H1         -22.8850   -26.5020     6.5890 ha         1 VN5       0.115000
     34 H2         -19.7170   -24.5500     8.7820 ha         1 VN5       0.132000
     35 H3         -14.6950   -27.9360     7.3450 ha         1 VN5       0.113000
     36 H4         -13.2090   -29.7660     6.6520 ha         1 VN5       0.118000
     37 H5         -14.1980   -31.8930    10.2510 ha         1 VN5       0.118000
     38 H6         -15.6720   -30.0730    10.9100 ha         1 VN5       0.113000
     39 H7         -14.4810   -26.3810     9.8620 hc         1 VN5       0.079950
     40 H8         -16.0710   -25.5220     9.6020 hc         1 VN5       0.079950
     41 H9         -17.1150   -26.9090    11.4170 hc         1 VN5       0.079950
     42 H10        -15.5230   -27.7520    11.6920 hc         1 VN5       0.079950
     43 H11        -11.8430   -33.6880     8.1830 h1         1 VN5       0.038033
     44 H12        -12.1240   -32.8230     9.7040 h1         1 VN5       0.038033
     45 H13        -13.4740   -33.6270     8.8730 h1         1 VN5       0.038033
     46 H14        -21.5870   -22.8950     9.2140 h1         1 VN5       0.048450
     47 H15        -20.4710   -22.8880     7.8450 h1         1 VN5       0.048450
     48 H16        -21.9580   -21.6480     6.4490 h1         1 VN5       0.040450
     49 H17        -21.7700   -20.8170     7.9970 h1         1 VN5       0.040450
     50 H18        -24.0570   -22.9290     6.0590 h1         1 VN5       0.040450
     51 H19        -25.2670   -22.9440     7.3480 h1         1 VN5       0.040450
     52 H20        -23.8310   -24.2290     8.8130 h1         1 VN5       0.048450
     53 H21        -23.9960   -25.0270     7.2540 h1         1 VN5       0.048450
     54 H22        -23.8420   -19.6480     7.7440 h1         1 VN5       0.032700
     55 H23        -24.1440   -20.3940     6.1660 h1         1 VN5       0.032700
     56 H24        -25.3310   -20.5520     7.4700 h1         1 VN5       0.032700
     57 H25        -19.1160   -31.9680     6.5300 h1         1 VN5       0.063700
     58 H26        -17.6970   -31.0930     7.0920 h1         1 VN5       0.063700
     59 H27        -21.6700   -28.5460     6.6390 ha         1 VN5       0.103000
     60 H28        -20.4410   -30.1640     6.8680 hn         1 VN5       0.497000
     61 H30        -18.2320   -32.9530     8.5710 h1         1 VN5       0.046200
     62 H31        -18.3530   -31.4270     9.4310 h1         1 VN5       0.046200
     63 H32        -20.2230   -32.9770     9.7930 hn         1 VN5       0.392000
     64 H33        -20.7340   -31.5800     9.1780 hn         1 VN5       0.392000
@<TRIPOS>BOND
     1     1     2 ar  
     2     1    23 ar  
     3     1    33 1   
     4     2     3 ar  
     5     2    29 1   
     6     3    21 ar  
     7     3    34 1   
     8     4     5 1   
     9     4    25 ar  
    10     4    27 ar  
    11     5     6 1   
    12     5    12 1   
    13     5    13 1   
    14     6     7 ar  
    15     6    11 ar  
    16     7     8 ar  
    17     7    35 1   
    18     8     9 ar  
    19     8    36 1   
    20     9    10 ar  
    21     9    28 1   
    22    10    11 ar  
    23    10    37 1   
    24    11    38 1   
    25    12    13 1   
    26    12    39 1   
    27    12    40 1   
    28    13    41 1   
    29    13    42 1   
    30    14    28 1   
    31    14    43 1   
    32    14    44 1   
    33    14    45 1   
    34    15    16 1   
    35    15    29 1   
    36    15    46 1   
    37    15    47 1   
    38    16    30 1   
    39    16    48 1   
    40    16    49 1   
    41    17    18 1   
    42    17    30 1   
    43    17    50 1   
    44    17    51 1   
    45    18    29 1   
    46    18    52 1   
    47    18    53 1   
    48    19    30 1   
    49    19    54 1   
    50    19    55 1   
    51    19    56 1   
    52    20    26 1   
    53    20    31 1   
    54    20    57 1   
    55    20    58 1   
    56    21    22 ar  
    57    21    27 ar  
    58    22    23 ar  
    59    22    24 ar  
    60    23    59 1   
    61    24    25 ar  
    62    24    26 1   
    63    26    60 1   
    64    31    32 1   
    65    31    61 1   
    66    31    62 1   
    67    32    63 1   
    68    32    64 1   
@<TRIPOS>SUBSTRUCTURE
     1 VN5         1 TEMP              0 ****  ****    0 ROOT
