@<TRIPOS>MOLECULE
VN5
   64    68     1     0     0
SMALL
No Charge or Current Charge


@<TRIPOS>ATOM
      1 C1         -21.8730   -26.8510     7.3380 ca         1 VN5      -0.171000
      2 C2         -21.1150   -25.7090     7.6480 ca         1 VN5       0.344000
      3 C3         -19.8860   -25.8690     8.3100 ca         1 VN5      -0.197000
      4 C11        -17.8190   -28.5130     9.6170 ca         1 VN5       0.230300
      5 C12        -16.5030   -28.6370    10.3410 cx         1 VN5      -0.126000
      6 C13        -15.3960   -28.7740     9.3300 ca         1 VN5      -0.060300
      7 C14        -14.7460   -27.6310     8.8290 ca         1 VN5      -0.058000
      8 C15        -13.7190   -27.7610     7.8780 ca         1 VN5      -0.176500
      9 C16        -13.3320   -29.0290     7.4170 ca         1 VN5       0.135100
     10 C17        -13.9850   -30.1780     7.9140 ca         1 VN5      -0.176500
     11 C18        -15.0130   -30.0460     8.8650 ca         1 VN5      -0.058000
     12 C19        -16.2630   -27.8810    11.6340 cx         1 VN5      -0.102400
     13 C20        -16.4210   -29.3800    11.6610 cx         1 VN5      -0.102400
     14 C22        -11.8480   -30.3440     5.9480 c3         1 VN5       0.149900
     15 C24        -20.6600   -23.2850     7.0410 c6         1 VN5       0.204800
     16 C25        -21.3030   -22.1600     6.1640 c6         1 VN5       0.153800
     17 C27        -23.5450   -22.8420     6.8630 c6         1 VN5       0.153800
     18 C28        -22.9490   -23.9810     7.7530 c6         1 VN5       0.204800
     19 C29        -23.1980   -20.5900     5.8940 c3         1 VN5       0.151100
     20 C30        -20.0250   -32.0850     9.0070 c3         1 VN5       0.236800
     21 C4         -19.4110   -27.1420     8.6660 ca         1 VN5       0.103000
     22 C5         -20.1820   -28.2850     8.3500 ca         1 VN5      -0.224000
     23 C6         -21.4170   -28.1320     7.6830 ca         1 VN5      -0.039000
     24 C7         -19.6620   -29.5430     8.7300 ca         1 VN5       0.414900
     25 N8         -18.4830   -29.6550     9.3620 nb         1 VN5      -0.290000
     26 N9         -20.3380   -30.7350     8.4710 nu         1 VN5      -0.927100
     27 N10        -18.2300   -27.2670     9.3030 nb         1 VN5      -0.242000
     28 O21        -12.3170   -29.0940     6.4840 os         1 VN5      -0.343100
     29 N23        -21.5970   -24.4290     7.2870 nh         1 VN5      -0.797400
     30 N26        -22.6140   -21.6830     6.7010 n3         1 VN5      -0.711600
     31 C31        -20.3340   -32.2100    10.5330 c3         1 VN5       0.121800
     32 N32        -21.7490   -31.9030    10.8880 n8         1 VN5      -1.003200
     33 H1         -22.8180   -26.7460     6.8130 ha         1 VN5       0.115000
     34 H2         -19.2910   -24.9980     8.5670 ha         1 VN5       0.132000
     35 H3         -15.0400   -26.6420     9.1740 ha         1 VN5       0.113000
     36 H4         -13.2210   -26.8730     7.4960 ha         1 VN5       0.118000
     37 H5         -13.7120   -31.1730     7.5770 ha         1 VN5       0.118000
     38 H6         -15.5150   -30.9350     9.2410 ha         1 VN5       0.113000
     39 H7         -15.2700   -27.4760    11.8130 hc         1 VN5       0.079950
     40 H8         -17.0770   -27.2810    12.0340 hc         1 VN5       0.079950
     41 H9         -17.3410   -29.7820    12.0800 hc         1 VN5       0.079950
     42 H10        -15.5340   -29.9770    11.8580 hc         1 VN5       0.079950
     43 H11        -11.0410   -30.1680     5.2250 h1         1 VN5       0.038033
     44 H12        -11.4560   -30.9880     6.7450 h1         1 VN5       0.038033
     45 H13        -12.6580   -30.8750     5.4310 h1         1 VN5       0.038033
     46 H14        -20.3500   -22.8460     8.0000 h1         1 VN5       0.048450
     47 H15        -19.7520   -23.6390     6.5320 h1         1 VN5       0.048450
     48 H16        -21.4350   -22.5500     5.1440 h1         1 VN5       0.040450
     49 H17        -20.5930   -21.3230     6.0960 h1         1 VN5       0.040450
     50 H18        -23.7910   -23.2660     5.8780 h1         1 VN5       0.040450
     51 H19        -24.4930   -22.5090     7.3120 h1         1 VN5       0.040450
     52 H20        -22.8770   -23.6150     8.7880 h1         1 VN5       0.048450
     53 H21        -23.6600   -24.8200     7.7580 h1         1 VN5       0.048450
     54 H22        -22.5060   -19.7390     5.8370 h1         1 VN5       0.032700
     55 H23        -23.4140   -20.9280     4.8720 h1         1 VN5       0.032700
     56 H24        -24.1350   -20.2340     6.3440 h1         1 VN5       0.032700
     57 H25        -20.6210   -32.8400     8.4750 h1         1 VN5       0.063700
     58 H26        -18.9680   -32.3300     8.8320 h1         1 VN5       0.063700
     59 H27        -22.0310   -28.9900     7.4230 ha         1 VN5       0.103000
     60 H28        -21.2290   -30.6350     7.9890 hn         1 VN5       0.497000
     61 H30        -20.0980   -33.2300    10.8650 h1         1 VN5       0.046200
     62 H31        -19.6790   -31.5200    11.0840 h1         1 VN5       0.046200
     63 H32        -21.8340   -31.8440    11.9100 hn         1 VN5       0.392000
     64 H33        -21.9510   -30.9480    10.5700 hn         1 VN5       0.392000
@<TRIPOS>BOND
     1     1     2 ar  
     2     1    23 ar  
     3     1    33 1   
     4     2     3 ar  
     5     2    29 1   
     6     3    21 ar  
     7     3    34 1   
     8     4     5 1   
     9     4    25 ar  
    10     4    27 ar  
    11     5     6 1   
    12     5    12 1   
    13     5    13 1   
    14     6     7 ar  
    15     6    11 ar  
    16     7     8 ar  
    17     7    35 1   
    18     8     9 ar  
    19     8    36 1   
    20     9    10 ar  
    21     9    28 1   
    22    10    11 ar  
    23    10    37 1   
    24    11    38 1   
    25    12    13 1   
    26    12    39 1   
    27    12    40 1   
    28    13    41 1   
    29    13    42 1   
    30    14    28 1   
    31    14    43 1   
    32    14    44 1   
    33    14    45 1   
    34    15    16 1   
    35    15    29 1   
    36    15    46 1   
    37    15    47 1   
    38    16    30 1   
    39    16    48 1   
    40    16    49 1   
    41    17    18 1   
    42    17    30 1   
    43    17    50 1   
    44    17    51 1   
    45    18    29 1   
    46    18    52 1   
    47    18    53 1   
    48    19    30 1   
    49    19    54 1   
    50    19    55 1   
    51    19    56 1   
    52    20    26 1   
    53    20    31 1   
    54    20    57 1   
    55    20    58 1   
    56    21    22 ar  
    57    21    27 ar  
    58    22    23 ar  
    59    22    24 ar  
    60    23    59 1   
    61    24    25 ar  
    62    24    26 1   
    63    26    60 1   
    64    31    32 1   
    65    31    61 1   
    66    31    62 1   
    67    32    63 1   
    68    32    64 1   
@<TRIPOS>SUBSTRUCTURE
     1 VN5         1 TEMP              0 ****  ****    0 ROOT
