@<TRIPOS>MOLECULE
VN6
   83    87     1     0     0
SMALL
No Charge or Current Charge


@<TRIPOS>ATOM
      1 C5           6.9350     8.2890     6.2290 ca         1 VN6       0.181300
      2 C6           6.4970     6.9910     5.9320 ca         1 VN6      -0.251000
      3 N7           4.1940    10.2820     5.0300 nh         1 VN6      -0.754300
      4 C8           4.7620    11.6760     5.0910 c6         1 VN6       0.217300
      5 C26         -2.6280    12.2040    11.8920 ca         1 VN6      -0.068000
      6 C27         -3.5800    11.8280    12.8570 ca         1 VN6      -0.075300
      7 C28         -3.7150    12.5920    14.0260 ca         1 VN6      -0.085000
      8 C29         -2.9130    13.7270    14.2170 ca         1 VN6      -0.134000
      9 C30         -1.9700    14.1220    13.2500 ca         1 VN6       0.289000
     10 C32         -0.3210    15.4120    14.6130 c3         1 VN6       0.198100
     11 C37          8.2760     8.5460     6.8890 c3         1 VN6      -0.155400
     12 C40         -4.4500    10.5950    12.6320 c3         1 VN6       0.213100
     13 C42         -6.1660     9.5880    10.9910 cy         1 VN6       0.148800
     14 C1           5.2410     6.8550     5.3160 ca         1 VN6       0.252000
     15 N2           4.4870     7.9320     5.0210 nb         1 VN6      -0.229000
     16 C3           4.9890     9.1430     5.3390 ca         1 VN6       0.396900
     17 N4           6.1830     9.3650     5.9320 nb         1 VN6      -0.246000
     18 C9           3.6710    12.7710     5.2840 c6         1 VN6       0.156300
     19 C10          2.9930    10.1760     4.1260 c6         1 VN6       0.217300
     20 C11          1.9590    11.3210     4.3510 c6         1 VN6       0.156300
     21 N12          2.5730    12.6770     4.2800 n3         1 VN6      -0.708500
     22 S13          1.4610    13.9710     4.3080 sy         1 VN6       1.156600
     23 C14          0.6960    13.8140     5.9300 ca         1 VN6      -0.348500
     24 O15          2.2630    15.1990     4.2560 o          1 VN6      -0.535500
     25 O16          0.4710    13.6800     3.2640 o          1 VN6      -0.535500
     26 C17         -0.4670    13.0370     6.0920 ca         1 VN6       0.013500
     27 C18         -1.0570    12.9160     7.3610 ca         1 VN6      -0.176500
     28 C19         -0.5010    13.5600     8.4810 ca         1 VN6       0.050000
     29 C20          1.2500    14.4790     7.0410 ca         1 VN6       0.013500
     30 C21          0.6540    14.3520     8.3070 ca         1 VN6      -0.176500
     31 N22         -1.1570    13.3960     9.7290 ns         1 VN6      -0.133000
     32 C23         -0.7740    13.6970    11.0300 c          1 VN6       0.634700
     33 O24          0.3400    14.1230    11.3160 o          1 VN6      -0.552100
     34 C25         -1.8080    13.3450    12.0760 ca         1 VN6      -0.121600
     35 S33         -1.8330    16.7770    12.7850 s6         1 VN6       1.216100
     36 C34         -3.4020    17.0460    13.5890 c3         1 VN6      -0.379100
     37 O35         -0.9120    17.8440    13.1870 o          1 VN6      -0.528000
     38 O36         -2.0820    16.5110    11.3650 o          1 VN6      -0.528000
     39 N39          4.2860     4.5050     4.7020 n1         1 VN6      -0.429000
     40 N41         -5.1790    10.6430    11.3600 nq         1 VN6      -0.731600
     41 C43         -6.2170    11.6770    11.0870 cy         1 VN6       0.148800
     42 C44         -6.7360    10.6670    10.0070 cy         1 VN6      -0.087700
     43 C45         -6.1490    10.7600     8.5850 c3         1 VN6       0.160800
     44 N46         -6.5720     9.6950     7.6520 n8         1 VN6      -0.997200
     45 H1           7.1060     6.1220     6.1690 ha         1 VN6       0.146000
     46 H2           5.4750    11.7830     5.9210 h1         1 VN6       0.080700
     47 H3           5.3130    11.8930     4.1640 h1         1 VN6       0.080700
     48 H4          -2.5210    11.5790    11.0070 ha         1 VN6       0.142000
     49 H5          -4.4440    12.3140    14.7840 ha         1 VN6       0.120000
     50 H6          -3.0380    14.3200    15.1190 ha         1 VN6       0.119000
     51 H7          -0.0790    14.4150    15.0060 h1         1 VN6       0.055367
     52 H8           0.6200    15.8830    14.2990 h1         1 VN6       0.055367
     53 H9          -0.7620    16.0040    15.4260 h1         1 VN6       0.055367
     54 H10          8.2250     9.3940     7.5820 hc         1 VN6       0.061033
     55 H11          8.6120     7.6720     7.4610 hc         1 VN6       0.061033
     56 H12          9.0420     8.7700     6.1380 hc         1 VN6       0.061033
     57 H13         -5.1720    10.4970    13.4530 h1         1 VN6       0.045700
     58 H14         -3.8110     9.7020    12.6410 h1         1 VN6       0.045700
     59 H15         -6.8650     9.3070    11.7900 h1         1 VN6       0.048950
     60 H16         -5.7560     8.6900    10.5140 h1         1 VN6       0.048950
     61 H17          4.1670    13.7510     5.2310 h1         1 VN6       0.065950
     62 H18          3.2660    12.6730     6.3030 h1         1 VN6       0.065950
     63 H19          2.4590     9.2270     4.2760 h1         1 VN6       0.080700
     64 H20          3.3170    10.2020     3.0750 h1         1 VN6       0.080700
     65 H21          1.1680    11.2100     3.5950 h1         1 VN6       0.065950
     66 H22          1.4870    11.1650     5.3320 h1         1 VN6       0.065950
     67 H23         -0.9160    12.5240     5.2420 ha         1 VN6       0.133500
     68 H24         -1.9530    12.3100     7.4710 ha         1 VN6       0.134500
     69 H25          2.1410    15.0960     6.9300 ha         1 VN6       0.133500
     70 H26          1.1000    14.8890     9.1380 ha         1 VN6       0.134500
     71 H27         -2.0880    13.0100     9.6510 hn         1 VN6       0.164000
     72 H28         -3.2150    17.0940    14.6660 h1         1 VN6       0.101367
     73 H29         -3.8050    17.9910    13.2120 h1         1 VN6       0.101367
     74 H30         -4.0550    16.2070    13.3330 h1         1 VN6       0.101367
     75 H32         -5.8530    12.6340    10.6940 h1         1 VN6       0.048950
     76 H33         -6.9260    11.8490    11.9070 h1         1 VN6       0.048950
     77 H34         -7.8260    10.6510     9.9150 hc         1 VN6       0.080700
     78 H35         -5.0520    10.7490     8.6530 h1         1 VN6       0.034200
     79 H36         -6.4500    11.7280     8.1600 h1         1 VN6       0.034200
     80 H37         -6.0860     9.8240     6.7560 hn         1 VN6       0.395500
     81 H38         -6.2130     8.7950     7.9930 hn         1 VN6       0.395500
     82 N31         -1.2520    15.3050    13.4760 nh         1 VN6      -0.763300
     83 C38          4.7090     5.5610     4.9750 cg         1 VN6       0.218000
@<TRIPOS>BOND
     1     1     2 ar  
     2     1    11 1   
     3     1    17 ar  
     4     2    14 ar  
     5     2    45 1   
     6     3     4 1   
     7     3    16 1   
     8     3    19 1   
     9     4    18 1   
    10     4    46 1   
    11     4    47 1   
    12     5     6 ar  
    13     5    34 ar  
    14     5    48 1   
    15     6     7 ar  
    16     6    12 1   
    17     7     8 ar  
    18     7    49 1   
    19     8     9 ar  
    20     8    50 1   
    21     9    34 ar  
    22     9    82 1   
    23    10    51 1   
    24    10    52 1   
    25    10    53 1   
    26    10    82 1   
    27    11    54 1   
    28    11    55 1   
    29    11    56 1   
    30    12    40 1   
    31    12    57 1   
    32    12    58 1   
    33    13    40 1   
    34    13    42 1   
    35    13    59 1   
    36    13    60 1   
    37    14    15 ar  
    38    14    83 1   
    39    15    16 ar  
    40    16    17 ar  
    41    18    21 1   
    42    18    61 1   
    43    18    62 1   
    44    19    20 1   
    45    19    63 1   
    46    19    64 1   
    47    20    21 1   
    48    20    65 1   
    49    20    66 1   
    50    21    22 1   
    51    22    23 1   
    52    22    24 2   
    53    22    25 2   
    54    23    26 ar  
    55    23    29 ar  
    56    26    27 ar  
    57    26    67 1   
    58    27    28 ar  
    59    27    68 1   
    60    28    30 ar  
    61    28    31 1   
    62    29    30 ar  
    63    29    69 1   
    64    30    70 1   
    65    31    32 1   
    66    31    71 1   
    67    32    33 2   
    68    32    34 1   
    69    35    36 1   
    70    35    37 2   
    71    35    38 2   
    72    35    82 1   
    73    36    72 1   
    74    36    73 1   
    75    36    74 1   
    76    39    83 3   
    77    40    41 1   
    78    41    42 1   
    79    41    75 1   
    80    41    76 1   
    81    42    43 1   
    82    42    77 1   
    83    43    44 1   
    84    43    78 1   
    85    43    79 1   
    86    44    80 1   
    87    44    81 1   
@<TRIPOS>SUBSTRUCTURE
     1 VN6         1 TEMP              0 ****  ****    0 ROOT
