@<TRIPOS>MOLECULE
VN6
   83    87     1     0     0
SMALL
abcg2


@<TRIPOS>ATOM
      1 C5           4.8050     8.5870     7.2200 ca         1 VN6       0.181300
      2 C6           3.8500     7.5650     7.2070 ca         1 VN6      -0.251000
      3 N7           3.8300    10.5360     4.4690 nh         1 VN6      -0.754300
      4 C8           4.6380    11.7280     4.6300 c6         1 VN6       0.217300
      5 C26         -2.2260    12.1270    11.7580 ca         1 VN6      -0.068000
      6 C27         -3.1400    11.6500    12.6920 ca         1 VN6      -0.075300
      7 C28         -3.3740    12.4060    13.8330 ca         1 VN6      -0.085000
      8 C29         -2.7140    13.6080    14.0350 ca         1 VN6      -0.134000
      9 C30         -1.8030    14.0810    13.0990 ca         1 VN6       0.289000
     10 C32         -0.4120    15.5100    14.5560 c3         1 VN6       0.198100
     11 C37          5.9010     8.5980     8.2340 c3         1 VN6      -0.155400
     12 C40         -3.8490    10.3380    12.4780 c3         1 VN6       0.213100
     13 C42         -4.6730     8.7990    10.6950 cy         1 VN6       0.148800
     14 C1           2.9080     7.6550     6.2050 ca         1 VN6       0.252000
     15 N2           2.8640     8.6180     5.2990 nb         1 VN6      -0.229000
     16 C3           3.8180     9.5480     5.3940 ca         1 VN6       0.396900
     17 N4           4.7790     9.5590     6.3290 nb         1 VN6      -0.246000
     18 C9           3.7870    12.8750     5.1560 c6         1 VN6       0.156300
     19 C10          2.7230    10.7520     3.5610 c6         1 VN6       0.217300
     20 C11          1.8340    11.8780     4.0680 c6         1 VN6       0.156300
     21 N12          2.6460    13.0820     4.2600 n3         1 VN6      -0.708500
     22 S13          1.8020    14.4970     4.4770 sy         1 VN6       1.156600
     23 C14          0.9740    14.3340     6.0260 ca         1 VN6      -0.348500
     24 O15          2.7880    15.5590     4.5860 o          1 VN6      -0.535500
     25 O16          0.7960    14.5530     3.4310 o          1 VN6      -0.535500
     26 C17         -0.3110    13.8040     6.0710 ca         1 VN6       0.013500
     27 C18         -0.9250    13.6110     7.2900 ca         1 VN6      -0.176500
     28 C19         -0.2720    13.9370     8.4840 ca         1 VN6       0.050000
     29 C20          1.6280    14.6750     7.2020 ca         1 VN6       0.013500
     30 C21          1.0160    14.4790     8.4280 ca         1 VN6      -0.176500
     31 N22         -0.9720    13.7040     9.6610 ns         1 VN6      -0.133000
     32 C23         -0.5300    13.7660    10.9490 c          1 VN6       0.634700
     33 O24          0.5910    14.0980    11.2730 o          1 VN6      -0.552100
     34 C25         -1.5540    13.3280    11.9500 ca         1 VN6      -0.121600
     35 S33         -1.7600    16.6480    12.5380 s6         1 VN6       1.216100
     36 C34         -3.1600    17.1750    13.5020 c3         1 VN6      -0.379100
     37 O35         -0.7500    17.6900    12.5970 o          1 VN6      -0.528000
     38 O36         -2.2470    16.1960    11.2450 o          1 VN6      -0.528000
     39 N39          1.0520     5.8530     6.0410 n1         1 VN6      -0.429000
     40 N41         -4.0110    10.0440    11.0830 nq         1 VN6      -0.731600
     41 C43         -4.9720    10.8270    10.3020 cy         1 VN6       0.148800
     42 C44         -5.3330     9.5520     9.5220 cy         1 VN6      -0.087700
     43 C45         -4.6140     9.4250     8.1940 c3         1 VN6       0.160800
     44 N46         -4.8480     8.1190     7.5960 n8         1 VN6      -0.997200
     45 H1           3.8470     6.7650     7.9330 ha         1 VN6       0.146000
     46 H2           5.4570    11.5400     5.3160 h1         1 VN6       0.080700
     47 H3           5.0580    11.9950     3.6580 h1         1 VN6       0.080700
     48 H4          -2.0330    11.5290    10.8760 ha         1 VN6       0.142000
     49 H5          -4.0920    12.0650    14.5700 ha         1 VN6       0.120000
     50 H6          -2.9250    14.1920    14.9230 ha         1 VN6       0.119000
     51 H7           0.1810    14.6170    14.7400 h1         1 VN6       0.055367
     52 H8           0.2700    16.3500    14.4630 h1         1 VN6       0.055367
     53 H9          -1.0680    15.6780    15.4130 h1         1 VN6       0.055367
     54 H10          6.2020     9.6170     8.4700 hc         1 VN6       0.061033
     55 H11          5.6030     8.0870     9.1470 hc         1 VN6       0.061033
     56 H12          6.7740     8.0780     7.8350 hc         1 VN6       0.061033
     57 H13         -4.8090    10.3580    13.0210 h1         1 VN6       0.045700
     58 H14         -3.2590     9.5330    12.9310 h1         1 VN6       0.045700
     59 H15         -5.4160     8.4540    11.4260 h1         1 VN6       0.048950
     60 H16         -4.0000     7.9670    10.4680 h1         1 VN6       0.048950
     61 H17          4.3950    13.7760     5.1910 h1         1 VN6       0.065950
     62 H18          3.4540    12.6410     6.1760 h1         1 VN6       0.065950
     63 H19          2.1370     9.8440     3.4530 h1         1 VN6       0.080700
     64 H20          3.1270    11.0140     2.5810 h1         1 VN6       0.080700
     65 H21          1.0580    12.0710     3.3310 h1         1 VN6       0.065950
     66 H22          1.3540    11.5680     5.0050 h1         1 VN6       0.065950
     67 H23         -0.8420    13.5440     5.1650 ha         1 VN6       0.133500
     68 H24         -1.9260    13.1980     7.3180 ha         1 VN6       0.134500
     69 H25          2.6190    15.1080     7.1800 ha         1 VN6       0.133500
     70 H26          1.5430    14.7580     9.3240 ha         1 VN6       0.134500
     71 H27         -1.9420    13.4510     9.5380 hn         1 VN6       0.164000
     72 H28         -2.8350    17.4160    14.5130 h1         1 VN6       0.101367
     73 H29         -3.5790    18.0610    13.0280 h1         1 VN6       0.101367
     74 H30         -3.9040    16.3820    13.5250 h1         1 VN6       0.101367
     75 H32         -4.5450    11.6620     9.7370 h1         1 VN6       0.048950
     76 H33         -5.8120    11.2040    10.9010 h1         1 VN6       0.048950
     77 H34         -6.3990     9.3650     9.3900 hc         1 VN6       0.080700
     78 H35         -3.5490     9.6630     8.3400 h1         1 VN6       0.034200
     79 H36         -5.0070    10.1860     7.5140 h1         1 VN6       0.034200
     80 H37         -4.4060     8.0830     6.6860 hn         1 VN6       0.395500
     81 H38         -4.3830     7.4070     8.1470 hn         1 VN6       0.395500
     82 N31         -1.1380    15.3180    13.3050 nh         1 VN6      -0.763300
     83 C38          1.8740     6.6550     6.1070 cg         1 VN6       0.218000
@<TRIPOS>BOND
     1     1     2 ar  
     2     1    11 1   
     3     1    17 ar  
     4     2    14 ar  
     5     2    45 1   
     6     3     4 1   
     7     3    16 1   
     8     3    19 1   
     9     4    18 1   
    10     4    46 1   
    11     4    47 1   
    12     5     6 ar  
    13     5    34 ar  
    14     5    48 1   
    15     6     7 ar  
    16     6    12 1   
    17     7     8 ar  
    18     7    49 1   
    19     8     9 ar  
    20     8    50 1   
    21     9    34 ar  
    22     9    82 1   
    23    10    51 1   
    24    10    52 1   
    25    10    53 1   
    26    10    82 1   
    27    11    54 1   
    28    11    55 1   
    29    11    56 1   
    30    12    40 1   
    31    12    57 1   
    32    12    58 1   
    33    13    40 1   
    34    13    42 1   
    35    13    59 1   
    36    13    60 1   
    37    14    15 ar  
    38    14    83 1   
    39    15    16 ar  
    40    16    17 ar  
    41    18    21 1   
    42    18    61 1   
    43    18    62 1   
    44    19    20 1   
    45    19    63 1   
    46    19    64 1   
    47    20    21 1   
    48    20    65 1   
    49    20    66 1   
    50    21    22 1   
    51    22    23 1   
    52    22    24 2   
    53    22    25 2   
    54    23    26 ar  
    55    23    29 ar  
    56    26    27 ar  
    57    26    67 1   
    58    27    28 ar  
    59    27    68 1   
    60    28    30 ar  
    61    28    31 1   
    62    29    30 ar  
    63    29    69 1   
    64    30    70 1   
    65    31    32 1   
    66    31    71 1   
    67    32    33 2   
    68    32    34 1   
    69    35    36 1   
    70    35    37 2   
    71    35    38 2   
    72    35    82 1   
    73    36    72 1   
    74    36    73 1   
    75    36    74 1   
    76    39    83 3   
    77    40    41 1   
    78    41    42 1   
    79    41    75 1   
    80    41    76 1   
    81    42    43 1   
    82    42    77 1   
    83    43    44 1   
    84    43    78 1   
    85    43    79 1   
    86    44    80 1   
    87    44    81 1   
@<TRIPOS>SUBSTRUCTURE
     1 VN6         1 TEMP              0 ****  ****    0 ROOT
