@<TRIPOS>MOLECULE
VN8
   55    58     1     0     0
SMALL
abcg2


@<TRIPOS>ATOM
      1 C1          -1.1190   -16.6770    21.3650 c3         1 VN8       0.084300
      2 C10          3.2850   -16.0500    17.8650 c5         1 VN8       0.162800
      3 C12          1.4190   -17.4980    17.1910 c3         1 VN8       0.218100
      4 C13          0.9100   -16.6920    16.0180 ca         1 VN8      -0.069300
      5 C14          0.1290   -15.5600    16.2480 ca         1 VN8      -0.092500
      6 C15         -0.3410   -14.8260    15.1730 ca         1 VN8       0.126000
      7 C17         -0.0670   -15.1870    13.8590 ca         1 VN8      -0.094000
      8 C18          0.7040   -16.3210    13.6560 ca         1 VN8       0.126000
      9 C20          1.1980   -17.0750    14.7130 ca         1 VN8      -0.092500
     10 C22          3.8000   -15.7360    22.5740 c3         1 VN8       0.081300
     11 C23          1.6740   -14.9940    21.6480 c          1 VN8       0.548000
     12 C25          0.6910   -15.1000    20.4810 c3         1 VN8       0.027700
     13 C26         -0.3040   -13.9460    20.4260 c3         1 VN8      -0.021100
     14 C27          0.3780   -12.6640    20.0060 ca         1 VN8      -0.090300
     15 C28          0.5090   -11.5910    20.8850 ca         1 VN8      -0.100000
     16 C29          1.1440   -10.4170    20.4880 ca         1 VN8      -0.112500
     17 C3           0.8240   -17.5120    20.2210 c          1 VN8       0.560000
     18 C30          1.6600   -10.3010    19.2020 ca         1 VN8      -0.108000
     19 C31          1.5340   -11.3660    18.3140 ca         1 VN8      -0.112500
     20 C32          0.9010   -12.5360    18.7150 ca         1 VN8      -0.100000
     21 C5           2.1630   -17.2710    19.5220 c5         1 VN8       0.088500
     22 C7           3.2160   -16.3780    20.2590 c5         1 VN8       0.118700
     23 C9           3.7390   -15.4110    19.1700 c5         1 VN8      -0.106400
     24 N11          1.9920   -16.6400    18.2140 n3         1 VN8      -0.741600
     25 N2           0.0770   -16.4380    20.5600 n          1 VN8      -0.382800
     26 N21          2.8100   -15.7150    21.5040 n          1 VN8      -0.405800
     27 O4           0.4610   -18.6660    20.4600 o          1 VN8      -0.560000
     28 CL16        -1.3070   -13.3960    15.4690 cl         1 VN8      -0.199000
     29 CL19         1.0730   -16.8060    12.0160 cl         1 VN8      -0.199000
     30 H1          -1.6430   -15.7430    21.5280 h1         1 VN8       0.049033
     31 H2          -1.7790   -17.3660    20.8420 h1         1 VN8       0.049033
     32 H3          -0.8580   -17.1160    22.3310 h1         1 VN8       0.049033
     33 H4           3.9970   -16.8240    17.5360 h1         1 VN8       0.049200
     34 H5           3.1720   -15.3280    17.0560 h1         1 VN8       0.049200
     35 H6           0.5850   -18.0530    17.6260 h1         1 VN8       0.055700
     36 H7           2.1470   -18.2430    16.8370 h1         1 VN8       0.055700
     37 H8          -0.0940   -15.2570    17.2590 ha         1 VN8       0.139000
     38 H9          -0.4330   -14.6030    13.0270 ha         1 VN8       0.147000
     39 H10          1.8110   -17.9460    14.5220 ha         1 VN8       0.139000
     40 H11          3.4150   -15.1850    23.4260 h1         1 VN8       0.048700
     41 H12          4.0080   -16.7650    22.8700 h1         1 VN8       0.048700
     42 H13          4.7310   -15.2730    22.2370 h1         1 VN8       0.048700
     43 H14          1.2220   -15.0880    19.5360 h1         1 VN8       0.103700
     44 H15         -0.7930   -13.8020    21.3870 hc         1 VN8       0.065700
     45 H16         -1.0730   -14.2070    19.6950 hc         1 VN8       0.065700
     46 H17          0.1150   -11.6790    21.8900 ha         1 VN8       0.117500
     47 H18          1.2490    -9.5990    21.1910 ha         1 VN8       0.113000
     48 H19          2.1390    -9.3830    18.8850 ha         1 VN8       0.112000
     49 H20          1.9250   -11.2850    17.3070 ha         1 VN8       0.113000
     50 H21          0.8060   -13.3520    18.0120 ha         1 VN8       0.117500
     51 H22          2.5970   -18.2740    19.4250 h1         1 VN8       0.066700
     52 H23          4.0220   -17.0440    20.5550 h1         1 VN8       0.065700
     53 H24          4.8180   -15.2860    19.2280 hc         1 VN8       0.066200
     54 H25          3.2830   -14.4280    19.2920 hc         1 VN8       0.066200
     55 O24          1.3920   -14.3690    22.6710 o          1 VN8      -0.554000
@<TRIPOS>BOND
     1     1    25 1   
     2     1    30 1   
     3     1    31 1   
     4     1    32 1   
     5     2    23 1   
     6     2    24 1   
     7     2    33 1   
     8     2    34 1   
     9     3     4 1   
    10     3    24 1   
    11     3    35 1   
    12     3    36 1   
    13     4     5 ar  
    14     4     9 ar  
    15     5     6 ar  
    16     5    37 1   
    17     6     7 ar  
    18     6    28 1   
    19     7     8 ar  
    20     7    38 1   
    21     8     9 ar  
    22     8    29 1   
    23     9    39 1   
    24    10    26 1   
    25    10    40 1   
    26    10    41 1   
    27    10    42 1   
    28    11    12 1   
    29    11    26 1   
    30    11    55 2   
    31    12    13 1   
    32    12    25 1   
    33    12    43 1   
    34    13    14 1   
    35    13    44 1   
    36    13    45 1   
    37    14    15 ar  
    38    14    20 ar  
    39    15    16 ar  
    40    15    46 1   
    41    16    18 ar  
    42    16    47 1   
    43    17    21 1   
    44    17    25 1   
    45    17    27 2   
    46    18    19 ar  
    47    18    48 1   
    48    19    20 ar  
    49    19    49 1   
    50    20    50 1   
    51    21    22 1   
    52    21    24 1   
    53    21    51 1   
    54    22    23 1   
    55    22    26 1   
    56    22    52 1   
    57    23    53 1   
    58    23    54 1   
@<TRIPOS>SUBSTRUCTURE
     1 VN8         1 TEMP              0 ****  ****    0 ROOT
