@<TRIPOS>MOLECULE
VN8
   55    58     1     0     0
SMALL
No Charge or Current Charge


@<TRIPOS>ATOM
      1 C1          -1.1970   -16.5620    21.2940 c3         1 VN8       0.084300
      2 C10          3.3850   -16.4130    17.8360 c5         1 VN8       0.162800
      3 C12          1.2310   -17.5680    17.2260 c3         1 VN8       0.218100
      4 C13          0.8140   -16.6590    16.0800 ca         1 VN8      -0.069300
      5 C14         -0.1270   -15.6370    16.3120 ca         1 VN8      -0.092500
      6 C15         -0.4980   -14.7670    15.2740 ca         1 VN8       0.126000
      7 C17          0.0620   -14.9150    13.9960 ca         1 VN8      -0.094000
      8 C18          0.9980   -15.9340    13.7590 ca         1 VN8       0.126000
      9 C20          1.3760   -16.8030    14.7970 ca         1 VN8      -0.092500
     10 C22          3.9030   -15.8500    22.6030 c3         1 VN8       0.081300
     11 C23          1.9110   -14.9230    21.4550 c          1 VN8       0.548000
     12 C25          0.7280   -15.1020    20.4610 c3         1 VN8       0.027700
     13 C26         -0.2810   -13.9130    20.4880 c3         1 VN8      -0.021100
     14 C27          0.3270   -12.6060    19.9820 ca         1 VN8      -0.090300
     15 C28          0.4680   -11.5010    20.8470 ca         1 VN8      -0.100000
     16 C29          1.0260   -10.2990    20.3780 ca         1 VN8      -0.112500
     17 C3           0.9150   -17.6450    20.4840 c          1 VN8       0.560000
     18 C30          1.4440   -10.1900    19.0420 ca         1 VN8      -0.108000
     19 C31          1.3020   -11.2850    18.1730 ca         1 VN8      -0.112500
     20 C32          0.7450   -12.4870    18.6410 ca         1 VN8      -0.100000
     21 C5           2.1890   -17.4830    19.5730 c5         1 VN8       0.088500
     22 C7           3.3490   -16.6530    20.2260 c5         1 VN8       0.118700
     23 C9           3.8290   -15.6630    19.1180 c5         1 VN8      -0.106400
     24 N11          2.0210   -16.8290    18.2310 n3         1 VN8      -0.741600
     25 N2           0.1150   -16.4690    20.5950 n          1 VN8      -0.382800
     26 N21          2.9710   -15.8740    21.4520 n          1 VN8      -0.405800
     27 O4           0.5660   -18.7130    20.9750 o          1 VN8      -0.560000
     28 Cl16        -1.6610   -13.4840    15.5830 cl         1 VN8      -0.199000
     29 Cl19         1.7060   -16.1180    12.1600 cl         1 VN8      -0.199000
     30 H1          -1.9710   -16.0430    20.7140 h1         1 VN8       0.049033
     31 H2          -1.5210   -17.6030    21.4110 h1         1 VN8       0.049033
     32 H3          -1.1210   -16.1050    22.2880 h1         1 VN8       0.049033
     33 H4           4.0300   -17.2780    17.6260 h1         1 VN8       0.049200
     34 H5           3.3880   -15.7560    16.9550 h1         1 VN8       0.049200
     35 H6           0.3180   -17.9690    17.6880 h1         1 VN8       0.055700
     36 H7           1.8010   -18.4250    16.8410 h1         1 VN8       0.055700
     37 H8          -0.5600   -15.5130    17.3010 ha         1 VN8       0.139000
     38 H9          -0.2260   -14.2410    13.1940 ha         1 VN8       0.147000
     39 H10          2.1100   -17.5820    14.6040 ha         1 VN8       0.139000
     40 H11          3.3390   -15.9020    23.5430 h1         1 VN8       0.048700
     41 H12          4.5870   -16.7070    22.5590 h1         1 VN8       0.048700
     42 H13          4.4920   -14.9240    22.5840 h1         1 VN8       0.048700
     43 H14          1.1650   -15.0300    19.4680 h1         1 VN8       0.103700
     44 H15         -0.6910   -13.7910    21.4990 hc         1 VN8       0.065700
     45 H16         -1.1310   -14.1560    19.8390 hc         1 VN8       0.065700
     46 H17          0.1510   -11.5750    21.8850 ha         1 VN8       0.117500
     47 H18          1.1350    -9.4520    21.0520 ha         1 VN8       0.113000
     48 H19          1.8760    -9.2600    18.6800 ha         1 VN8       0.112000
     49 H20          1.6230   -11.2020    17.1370 ha         1 VN8       0.113000
     50 H21          0.6380   -13.3250    17.9560 ha         1 VN8       0.117500
     51 H22          2.5600   -18.5060    19.4210 h1         1 VN8       0.066700
     52 H23          4.1640   -17.3490    20.4660 h1         1 VN8       0.065700
     53 H24          4.9100   -15.4960    19.1500 hc         1 VN8       0.066200
     54 H25          3.3510   -14.6800    19.1730 hc         1 VN8       0.066200
     55 O24          1.8830   -14.0520    22.3180 o          1 VN8      -0.554000
@<TRIPOS>BOND
     1     1    25 1   
     2     1    30 1   
     3     1    31 1   
     4     1    32 1   
     5     2    23 1   
     6     2    24 1   
     7     2    33 1   
     8     2    34 1   
     9     3     4 1   
    10     3    24 1   
    11     3    35 1   
    12     3    36 1   
    13     4     5 ar  
    14     4     9 ar  
    15     5     6 ar  
    16     5    37 1   
    17     6     7 ar  
    18     6    28 1   
    19     7     8 ar  
    20     7    38 1   
    21     8     9 ar  
    22     8    29 1   
    23     9    39 1   
    24    10    26 1   
    25    10    40 1   
    26    10    41 1   
    27    10    42 1   
    28    11    12 1   
    29    11    26 1   
    30    11    55 2   
    31    12    13 1   
    32    12    25 1   
    33    12    43 1   
    34    13    14 1   
    35    13    44 1   
    36    13    45 1   
    37    14    15 ar  
    38    14    20 ar  
    39    15    16 ar  
    40    15    46 1   
    41    16    18 ar  
    42    16    47 1   
    43    17    21 1   
    44    17    25 1   
    45    17    27 2   
    46    18    19 ar  
    47    18    48 1   
    48    19    20 ar  
    49    19    49 1   
    50    20    50 1   
    51    21    22 1   
    52    21    24 1   
    53    21    51 1   
    54    22    23 1   
    55    22    26 1   
    56    22    52 1   
    57    23    53 1   
    58    23    54 1   
@<TRIPOS>SUBSTRUCTURE
     1 VN8         1 TEMP              0 ****  ****    0 ROOT
