@<TRIPOS>MOLECULE
VN9
   20    21     1     0     0
SMALL
No Charge or Current Charge


@<TRIPOS>ATOM
      1 C10         23.6180   -20.4140     5.7530 ca         1 VN9      -0.074000
      2 C01         23.4980   -20.0360     8.2770 c6         1 VN9      -0.023100
      3 C02         23.6000   -18.8350     9.2540 c6         1 VN9      -0.161400
      4 C03         24.9310   -18.0730     9.1550 c          1 VN9       0.570000
      5 C06         25.0600   -18.7260     6.7520 ca         1 VN9      -0.013000
      6 C07         25.6160   -18.4510     5.4920 ca         1 VN9      -0.155000
      7 C08         25.1690   -19.1520     4.3590 ca         1 VN9      -0.078000
      8 C09         24.1690   -20.1320     4.4910 ca         1 VN9      -0.135000
      9 C11         24.0600   -19.7090     6.8890 ca         1 VN9      -0.125300
     10 N05         25.4970   -18.0300     7.8970 ns         1 VN9      -0.151000
     11 O04         25.4630   -17.5600    10.1310 o          1 VN9      -0.542000
     12 H1          22.8530   -21.1830     5.8480 ha         1 VN9       0.114000
     13 H2          22.4520   -20.3630     8.2010 hc         1 VN9       0.057700
     14 H3          24.0560   -20.8870     8.6910 hc         1 VN9       0.057700
     15 H4          22.8370   -18.1180     8.9230 hc         1 VN9       0.075700
     16 H5          23.3780   -19.0970    10.2970 hc         1 VN9       0.075700
     17 H6          26.3900   -17.6930     5.3880 ha         1 VN9       0.117000
     18 H7          25.5960   -18.9390     3.3810 ha         1 VN9       0.116000
     19 H8          23.8250   -20.6780     3.6150 ha         1 VN9       0.117000
     20 H9          26.3510   -17.4950     7.8030 hn         1 VN9       0.158000
@<TRIPOS>BOND
     1     1     8 ar  
     2     1     9 ar  
     3     1    12 1   
     4     2     3 1   
     5     2     9 1   
     6     2    13 1   
     7     2    14 1   
     8     3     4 1   
     9     3    15 1   
    10     3    16 1   
    11     4    10 1   
    12     4    11 2   
    13     5     6 ar  
    14     5     9 ar  
    15     5    10 1   
    16     6     7 ar  
    17     6    17 1   
    18     7     8 ar  
    19     7    18 1   
    20     8    19 1   
    21    10    20 1   
@<TRIPOS>SUBSTRUCTURE
     1 VN9         1 TEMP              0 ****  ****    0 ROOT
