@<TRIPOS>MOLECULE
VN9
   20    21     1     0     0
SMALL
abcg2


@<TRIPOS>ATOM
      1 C10         23.6020   -20.3800     5.7630 ca         1 VN9      -0.074000
      2 C01         23.5740   -20.0610     8.2850 c6         1 VN9      -0.023100
      3 C02         23.5720   -18.8050     9.1480 c6         1 VN9      -0.161400
      4 C03         24.9010   -18.0910     9.1190 c          1 VN9       0.570000
      5 C06         25.0730   -18.7840     6.7790 ca         1 VN9      -0.013000
      6 C07         25.6070   -18.4810     5.5310 ca         1 VN9      -0.155000
      7 C08         25.1370   -19.1360     4.4020 ca         1 VN9      -0.078000
      8 C09         24.1290   -20.0840     4.5120 ca         1 VN9      -0.135000
      9 C11         24.0690   -19.7460     6.9050 ca         1 VN9      -0.125300
     10 N05         25.5500   -18.1440     7.9250 ns         1 VN9      -0.151000
     11 O04         25.3610   -17.4830    10.0680 o          1 VN9      -0.542000
     12 H1          22.8170   -21.1200     5.8580 ha         1 VN9       0.114000
     13 H2          22.5740   -20.4930     8.2470 hc         1 VN9       0.057700
     14 H3          24.2220   -20.8160     8.7420 hc         1 VN9       0.057700
     15 H4          22.8170   -18.1010     8.7780 hc         1 VN9       0.075700
     16 H5          23.3190   -19.0300    10.1830 hc         1 VN9       0.075700
     17 H6          26.3870   -17.7330     5.4430 ha         1 VN9       0.117000
     18 H7          25.5570   -18.8960     3.4340 ha         1 VN9       0.116000
     19 H8          23.7550   -20.5900     3.6310 ha         1 VN9       0.117000
     20 H9          26.3960   -17.5960     7.8440 hn         1 VN9       0.158000
@<TRIPOS>BOND
     1     1     8 ar  
     2     1     9 ar  
     3     1    12 1   
     4     2     3 1   
     5     2     9 1   
     6     2    13 1   
     7     2    14 1   
     8     3     4 1   
     9     3    15 1   
    10     3    16 1   
    11     4    10 1   
    12     4    11 2   
    13     5     6 ar  
    14     5     9 ar  
    15     5    10 1   
    16     6     7 ar  
    17     6    17 1   
    18     7     8 ar  
    19     7    18 1   
    20     8    19 1   
    21    10    20 1   
@<TRIPOS>SUBSTRUCTURE
     1 VN9         1 TEMP              0 ****  ****    0 ROOT
