@<TRIPOS>MOLECULE
VNB
   31    31     1     0     0
SMALL
No Charge or Current Charge


@<TRIPOS>ATOM
      1 CAA        -29.5440    16.3080    -0.4270 c3         1 VNB       0.146100
      2 CAB        -26.9180    18.3250    -4.8060 c5         1 VNB       0.159500
      3 CAC        -28.0920    19.2010    -4.2230 c5         1 VNB       0.155300
      4 CAD        -29.0410    18.0510    -3.7860 c5         1 VNB       0.105300
      5 CAE        -28.0250    17.1250    -3.0540 c5         1 VNB       0.117500
      6 CAG        -25.5550    19.0760    -4.9300 c3         1 VNB       0.181600
      7 CAK        -28.6460    15.7470    -2.6800 c3         1 VNB       0.154800
      8 CAM        -30.6250    14.5790    -1.7860 c3         1 VNB       0.146100
      9 NAF        -26.8530    17.0630    -3.9780 n7         1 VNB      -0.830400
     10 NAL        -29.8530    15.8430    -1.8030 n3         1 VNB      -0.740600
     11 OAH        -27.7180    20.0340    -3.1120 oh         1 VNB      -0.663000
     12 OAI        -30.1080    18.4610    -2.9260 oh         1 VNB      -0.672000
     13 OAJ        -24.5900    18.3010    -5.6690 oh         1 VNB      -0.666000
     14 H1         -30.4620    16.3830     0.1710 h1         1 VNB       0.036867
     15 H2         -28.8640    15.6080     0.0790 h1         1 VNB       0.036867
     16 H3         -29.0730    17.2990    -0.4340 h1         1 VNB       0.036867
     17 H4         -27.2040    18.0440    -5.8300 h1         1 VNB       0.049700
     18 H5         -28.5500    19.8130    -5.0130 h1         1 VNB       0.054700
     19 H6         -29.4540    17.5400    -4.6680 h1         1 VNB       0.033700
     20 H7         -27.7030    17.6030    -2.1180 h1         1 VNB       0.084700
     21 H8         -25.1780    19.2980    -3.9220 h1         1 VNB       0.035200
     22 H9         -25.7310    20.0350    -5.4360 h1         1 VNB       0.035200
     23 H10        -28.9140    15.2450    -3.6200 h1         1 VNB       0.044700
     24 H11        -27.8740    15.1310    -2.1970 h1         1 VNB       0.044700
     25 H12        -31.5420    14.6910    -1.1930 h1         1 VNB       0.036867
     26 H13        -30.9180    14.2890    -2.8040 h1         1 VNB       0.036867
     27 H14        -30.0320    13.7620    -1.3530 h1         1 VNB       0.036867
     28 H15        -26.9470    16.2610    -4.6140 hn         1 VNB       0.408000
     29 H18        -28.5150    20.0440    -2.5350 ho         1 VNB       0.465000
     30 H19        -30.3260    17.6330    -2.4170 ho         1 VNB       0.488000
     31 H20        -23.7370    18.7870    -5.6170 ho         1 VNB       0.441000
@<TRIPOS>BOND
     1     1    10 1   
     2     1    14 1   
     3     1    15 1   
     4     1    16 1   
     5     2     3 1   
     6     2     6 1   
     7     2     9 1   
     8     2    17 1   
     9     3     4 1   
    10     3    11 1   
    11     3    18 1   
    12     4     5 1   
    13     4    12 1   
    14     4    19 1   
    15     5     7 1   
    16     5     9 1   
    17     5    20 1   
    18     6    13 1   
    19     6    21 1   
    20     6    22 1   
    21     7    10 1   
    22     7    23 1   
    23     7    24 1   
    24     8    10 1   
    25     8    25 1   
    26     8    26 1   
    27     8    27 1   
    28     9    28 1   
    29    11    29 1   
    30    12    30 1   
    31    13    31 1   
@<TRIPOS>SUBSTRUCTURE
     1 VNB         1 TEMP              0 ****  ****    0 ROOT
