@<TRIPOS>MOLECULE
VNB
   31    31     1     0     0
SMALL
abcg2


@<TRIPOS>ATOM
      1 CAA        -29.2670    16.1300    -0.3800 c3         1 VNB       0.146100
      2 CAB        -26.9590    18.2810    -4.8330 c5         1 VNB       0.159500
      3 CAC        -28.2060    19.0710    -4.3940 c5         1 VNB       0.155300
      4 CAD        -29.0740    17.9660    -3.8030 c5         1 VNB       0.105300
      5 CAE        -28.0290    17.1220    -3.0730 c5         1 VNB       0.117500
      6 CAG        -25.6740    19.0820    -4.7510 c3         1 VNB       0.181600
      7 CAK        -28.5690    15.7640    -2.6620 c3         1 VNB       0.154800
      8 CAM        -30.6520    14.8470    -1.8440 c3         1 VNB       0.146100
      9 NAF        -26.9070    17.0600    -4.0000 n7         1 VNB      -0.830400
     10 NAL        -29.7010    15.9390    -1.7530 n3         1 VNB      -0.740600
     11 OAH        -27.8690    20.0240    -3.4110 oh         1 VNB      -0.663000
     12 OAI        -30.1050    18.4620    -2.9960 oh         1 VNB      -0.672000
     13 OAJ        -24.6510    18.3310    -5.3720 oh         1 VNB      -0.666000
     14 H1         -30.1270    16.3460     0.2550 h1         1 VNB       0.036867
     15 H2         -28.7570    15.2440     0.0240 h1         1 VNB       0.036867
     16 H3         -28.5820    16.9740    -0.3040 h1         1 VNB       0.036867
     17 H4         -27.1030    18.0000    -5.8820 h1         1 VNB       0.049700
     18 H5         -28.6800    19.5590    -5.2550 h1         1 VNB       0.054700
     19 H6         -29.4690    17.3610    -4.6380 h1         1 VNB       0.033700
     20 H7         -27.7140    17.6680    -2.1740 h1         1 VNB       0.084700
     21 H8         -25.4360    19.2880    -3.7020 h1         1 VNB       0.035200
     22 H9         -25.8150    20.0510    -5.2500 h1         1 VNB       0.035200
     23 H10        -28.9210    15.2460    -3.5600 h1         1 VNB       0.044700
     24 H11        -27.7810    15.1350    -2.2210 h1         1 VNB       0.044700
     25 H12        -31.5030    15.0460    -1.1930 h1         1 VNB       0.036867
     26 H13        -31.0230    14.7570    -2.8650 h1         1 VNB       0.036867
     27 H14        -30.2220    13.8790    -1.5500 h1         1 VNB       0.036867
     28 H15        -27.0020    16.2470    -4.5950 hn         1 VNB       0.408000
     29 H18        -28.6610    20.1880    -2.8850 ho         1 VNB       0.465000
     30 H19        -30.3140    17.7200    -2.3940 ho         1 VNB       0.488000
     31 H20        -23.8190    18.7930    -5.2360 ho         1 VNB       0.441000
@<TRIPOS>BOND
     1     1    10 1   
     2     1    14 1   
     3     1    15 1   
     4     1    16 1   
     5     2     3 1   
     6     2     6 1   
     7     2     9 1   
     8     2    17 1   
     9     3     4 1   
    10     3    11 1   
    11     3    18 1   
    12     4     5 1   
    13     4    12 1   
    14     4    19 1   
    15     5     7 1   
    16     5     9 1   
    17     5    20 1   
    18     6    13 1   
    19     6    21 1   
    20     6    22 1   
    21     7    10 1   
    22     7    23 1   
    23     7    24 1   
    24     8    10 1   
    25     8    25 1   
    26     8    26 1   
    27     8    27 1   
    28     9    28 1   
    29    11    29 1   
    30    12    30 1   
    31    13    31 1   
@<TRIPOS>SUBSTRUCTURE
     1 VNB         1 TEMP              0 ****  ****    0 ROOT
