@<TRIPOS>MOLECULE
VNC
   29    29     1     0     0
SMALL
abcg2


@<TRIPOS>ATOM
      1 C7          29.4020    14.7840    43.9650 ca         1 VNC      -0.055000
      2 C8          28.1050    15.2600    43.7920 ca         1 VNC      -0.128500
      3 C9          27.7890    16.0360    42.6840 ca         1 VNC      -0.017000
      4 O1          28.0450    15.8270    36.4740 os         1 VNC      -0.417100
      5 C1          29.0170    15.3340    38.5960 c3         1 VNC       0.133800
      6 C5          30.0870    15.8590    41.9200 ca         1 VNC      -0.017000
      7 C6          30.3900    15.0840    43.0320 ca         1 VNC      -0.128500
      8 C4          28.7860    16.3310    41.7580 ca         1 VNC      -0.317500
      9 C3          27.8630    15.5740    35.0620 c3         1 VNC       0.147900
     10 O3          29.5670    17.9050    39.8250 o          1 VNC      -0.536500
     11 C2          28.8430    14.9900    37.1270 c          1 VNC       0.587100
     12 S           28.3730    17.2510    40.3030 sy         1 VNC       1.186600
     13 O2          27.1960    18.0360    40.5840 o          1 VNC      -0.536500
     14 N           27.9430    16.1440    39.1550 n3         1 VNC      -0.714500
     15 O           29.4230    14.0580    36.6180 o          1 VNC      -0.490000
     16 C           26.6860    15.4150    39.3740 c3         1 VNC       0.176100
     17 H1          29.6440    14.1810    44.8310 ha         1 VNC       0.119000
     18 H2          27.3390    15.0300    44.5210 ha         1 VNC       0.121000
     19 H3          26.7880    16.4170    42.5440 ha         1 VNC       0.134000
     20 H4          29.1370    14.3910    39.1370 h1         1 VNC       0.085700
     21 H5          29.9580    15.8810    38.6640 h1         1 VNC       0.085700
     22 H6          30.8510    16.1050    41.1950 ha         1 VNC       0.134000
     23 H7          31.3990    14.7200    43.1710 ha         1 VNC       0.121000
     24 H8          27.1800    16.3440    34.7180 h1         1 VNC       0.052700
     25 H9          28.8180    15.6470    34.5450 h1         1 VNC       0.052700
     26 H10         27.4350    14.5850    34.9130 h1         1 VNC       0.052700
     27 H11         25.9260    16.0970    39.7400 h1         1 VNC       0.056367
     28 H12         26.3590    15.0130    38.4160 h1         1 VNC       0.056367
     29 H13         26.8200    14.5910    40.0810 h1         1 VNC       0.056367
@<TRIPOS>BOND
     1     1     2 ar  
     2     1     7 ar  
     3     1    17 1   
     4     2     3 ar  
     5     2    18 1   
     6     3     8 ar  
     7     3    19 1   
     8     4     9 1   
     9     4    11 1   
    10     5    11 1   
    11     5    14 1   
    12     5    20 1   
    13     5    21 1   
    14     6     7 ar  
    15     6     8 ar  
    16     6    22 1   
    17     7    23 1   
    18     8    12 1   
    19     9    24 1   
    20     9    25 1   
    21     9    26 1   
    22    10    12 2   
    23    11    15 2   
    24    12    13 2   
    25    12    14 1   
    26    14    16 1   
    27    16    27 1   
    28    16    28 1   
    29    16    29 1   
@<TRIPOS>SUBSTRUCTURE
     1 VNC         1 TEMP              0 ****  ****    0 ROOT
