@<TRIPOS>MOLECULE
VNC
   29    29     1     0     0
SMALL
No Charge or Current Charge


@<TRIPOS>ATOM
      1 C7          30.8420    14.6610    42.8040 ca         1 VNC      -0.055000
      2 C8          29.5250    14.2680    43.0980 ca         1 VNC      -0.128500
      3 C9          28.4370    15.0000    42.5920 ca         1 VNC      -0.017000
      4 O1          28.9840    14.7330    37.3460 os         1 VNC      -0.417100
      5 C1          27.4430    15.2190    39.1560 c3         1 VNC       0.133800
      6 C5          29.9900    16.5280    41.4900 ca         1 VNC      -0.017000
      7 C6          31.0720    15.7900    42.0000 ca         1 VNC      -0.128500
      8 C4          28.6680    16.1350    41.7850 ca         1 VNC      -0.317500
      9 C3          29.3280    14.3620    35.9980 c3         1 VNC       0.147900
     10 O3          27.6450    18.4980    41.2000 o          1 VNC      -0.536500
     11 C2          27.6520    14.7990    37.6790 c          1 VNC       0.587100
     12 S           27.2860    17.0780    41.1120 sy         1 VNC       1.186600
     13 O2          26.0180    16.5570    41.6360 o          1 VNC      -0.536500
     14 N           27.3430    16.6900    39.4530 n3         1 VNC      -0.714500
     15 O           26.7360    14.5550    36.9010 o          1 VNC      -0.490000
     16 C           26.3010    17.3840    38.6630 c3         1 VNC       0.176100
     17 H1          31.6810    14.0920    43.1980 ha         1 VNC       0.119000
     18 H2          29.3460    13.3930    43.7200 ha         1 VNC       0.121000
     19 H3          27.4230    14.6800    42.8270 ha         1 VNC       0.134000
     20 H4          26.5390    14.6990    39.4990 h1         1 VNC       0.085700
     21 H5          28.2860    14.7720    39.6970 h1         1 VNC       0.085700
     22 H6          30.1800    17.3980    40.8620 ha         1 VNC       0.134000
     23 H7          32.0910    16.0940    41.7700 ha         1 VNC       0.121000
     24 H8          30.4180    14.3500    35.8720 h1         1 VNC       0.052700
     25 H9          28.9470    13.3610    35.7570 h1         1 VNC       0.052700
     26 H10         28.9110    15.0760    35.2770 h1         1 VNC       0.052700
     27 H11         26.3270    18.4680    38.8420 h1         1 VNC       0.056367
     28 H12         26.4510    17.2310    37.5870 h1         1 VNC       0.056367
     29 H13         25.2980    17.0190    38.9230 h1         1 VNC       0.056367
@<TRIPOS>BOND
     1     1     2 ar  
     2     1     7 ar  
     3     1    17 1   
     4     2     3 ar  
     5     2    18 1   
     6     3     8 ar  
     7     3    19 1   
     8     4     9 1   
     9     4    11 1   
    10     5    11 1   
    11     5    14 1   
    12     5    20 1   
    13     5    21 1   
    14     6     7 ar  
    15     6     8 ar  
    16     6    22 1   
    17     7    23 1   
    18     8    12 1   
    19     9    24 1   
    20     9    25 1   
    21     9    26 1   
    22    10    12 2   
    23    11    15 2   
    24    12    13 2   
    25    12    14 1   
    26    14    16 1   
    27    16    27 1   
    28    16    28 1   
    29    16    29 1   
@<TRIPOS>SUBSTRUCTURE
     1 VNC         1 TEMP              0 ****  ****    0 ROOT
