@<TRIPOS>MOLECULE
VND
   40    40     1     0     0
SMALL
bcc


@<TRIPOS>ATOM
      1 N1         -11.3970    22.9660   -13.4210 n7         1 VND      -0.790200
      2 C4          -8.8870    21.6140   -12.2350 c6         1 VND       0.112100
      3 C5          -8.8910    22.0920   -10.7860 c6         1 VND       0.082100
      4 C6         -10.1110    22.9710   -10.4660 c6         1 VND       0.142800
      5 C7         -10.0350    23.5420    -9.0440 c3         1 VND       0.105400
      6 C8         -12.5410    23.8430   -13.5870 c3         1 VND       0.166800
      7 C10        -14.3130    22.0410   -13.1940 c3         1 VND      -0.077400
      8 C1         -10.2120    24.1000   -11.4890 c6         1 VND      -0.107400
      9 C11        -15.5790    21.3920   -13.7360 c3         1 VND      -0.089100
     10 C2         -10.1980    23.6430   -12.9570 c6         1 VND       0.185500
     11 C3          -8.9420    22.8030   -13.1870 c6         1 VND       0.170100
     12 C9         -13.7490    23.0980   -14.1390 c3         1 VND      -0.075400
     13 O1         -11.2970    22.1980   -10.5410 oh         1 VND      -0.599800
     14 O2          -8.8470    24.2780    -8.8800 oh         1 VND      -0.603800
     15 O3          -8.8720    20.9350    -9.9700 oh         1 VND      -0.617800
     16 O4          -7.7010    20.9060   -12.5250 oh         1 VND      -0.609800
     17 O5          -8.8820    22.3990   -14.5310 oh         1 VND      -0.569800
     18 H1         -11.6380    22.2340   -12.7650 hn         1 VND       0.368800
     19 H3          -9.7610    20.9690   -12.4080 h1         1 VND       0.064700
     20 H4          -7.9830    22.6890   -10.6350 h1         1 VND       0.069700
     21 H5         -10.9250    24.1660    -8.8860 h1         1 VND       0.029200
     22 H6         -10.0970    22.7150    -8.3220 h1         1 VND       0.029200
     23 H7         -12.2620    24.6360   -14.2870 h1         1 VND       0.023700
     24 H8         -12.8420    24.3510   -12.6560 h1         1 VND       0.023700
     25 H9         -13.5670    21.2630   -13.0100 hc         1 VND       0.038700
     26 H10        -14.5220    22.5010   -12.2230 hc         1 VND       0.038700
     27 H11         -9.3710    24.7800   -11.3300 hc         1 VND       0.063700
     28 H12        -11.1120    24.6880   -11.2870 hc         1 VND       0.063700
     29 H13        -15.9690    20.6390   -13.0520 hc         1 VND       0.030033
     30 H14        -16.3640    22.1330   -13.8950 hc         1 VND       0.030033
     31 H15        -15.3910    20.9030   -14.6940 hc         1 VND       0.030033
     32 H16        -10.0940    24.5460   -13.5700 h1         1 VND       0.068700
     33 H17         -8.0830    23.4530   -12.9450 h1         1 VND       0.030700
     34 H18        -14.5310    23.8310   -14.3570 hc         1 VND       0.045200
     35 H19        -13.4820    22.6340   -15.0930 hc         1 VND       0.045200
     36 H20        -11.1480    21.3830   -10.0450 ho         1 VND       0.419000
     37 H21         -8.8150    24.6040    -7.9770 ho         1 VND       0.411000
     38 H22         -8.4200    21.1350    -9.1450 ho         1 VND       0.414000
     39 H23         -7.6790    20.1170   -11.9740 ho         1 VND       0.421000
     40 H24         -8.0840    21.8710   -14.6400 ho         1 VND       0.414000
@<TRIPOS>BOND
     1     1     6 1   
     2     1    10 1   
     3     1    18 1   
     4     2     3 1   
     5     2    11 1   
     6     2    16 1   
     7     2    19 1   
     8     3     4 1   
     9     3    15 1   
    10     3    20 1   
    11     4     5 1   
    12     4     8 1   
    13     4    13 1   
    14     5    14 1   
    15     5    21 1   
    16     5    22 1   
    17     6    12 1   
    18     6    23 1   
    19     6    24 1   
    20     7     9 1   
    21     7    12 1   
    22     7    25 1   
    23     7    26 1   
    24     8    10 1   
    25     8    27 1   
    26     8    28 1   
    27     9    29 1   
    28     9    30 1   
    29     9    31 1   
    30    10    11 1   
    31    10    32 1   
    32    11    17 1   
    33    11    33 1   
    34    12    34 1   
    35    12    35 1   
    36    13    36 1   
    37    14    37 1   
    38    15    38 1   
    39    16    39 1   
    40    17    40 1   
@<TRIPOS>SUBSTRUCTURE
     1 VND         1 TEMP              0 ****  ****    0 ROOT
