@<TRIPOS>MOLECULE
VND
   40    40     1     0     0
SMALL
No Charge or Current Charge


@<TRIPOS>ATOM
      1 N1         -11.3610    23.0730   -13.4650 n7         1 VND      -0.845400
      2 C4          -8.8190    21.6420   -12.3610 c6         1 VND       0.135300
      3 C5          -8.9000    22.0240   -10.8520 c6         1 VND       0.105300
      4 C6         -10.1720    22.8980   -10.5520 c6         1 VND       0.166000
      5 C7         -10.1930    23.3870    -9.0540 c3         1 VND       0.128600
      6 C8         -12.5150    23.9170   -13.8180 c3         1 VND       0.166800
      7 C10        -14.2870    22.1950   -13.0250 c3         1 VND      -0.077400
      8 C1         -10.2300    24.1320   -11.5160 c6         1 VND      -0.107400
      9 C11        -15.5450    21.3910   -13.4090 c3         1 VND      -0.089100
     10 C2         -10.1190    23.7600   -13.0230 c6         1 VND       0.185500
     11 C3          -8.8110    22.9190   -13.2500 c6         1 VND       0.193300
     12 C9         -13.7340    23.0480   -14.1930 c3         1 VND      -0.075400
     13 O1         -11.3290    22.0690   -10.7480 oh         1 VND      -0.722000
     14 O2          -9.0430    24.1710    -8.6870 oh         1 VND      -0.726000
     15 O3          -8.9050    20.8120   -10.0590 oh         1 VND      -0.740000
     16 O4          -7.6400    20.8460   -12.5980 oh         1 VND      -0.732000
     17 O5          -8.6160    22.5340   -14.6230 oh         1 VND      -0.692000
     18 H1         -11.6460    22.4840   -12.6670 hn         1 VND       0.424000
     19 H3          -9.7130    21.0520   -12.6150 h1         1 VND       0.064700
     20 H4          -8.0080    22.6270   -10.6150 h1         1 VND       0.069700
     21 H5         -11.1070    23.9790    -8.9040 h1         1 VND       0.029200
     22 H6         -10.2700    22.5100    -8.3970 h1         1 VND       0.029200
     23 H7         -12.2620    24.5600   -14.6720 h1         1 VND       0.023700
     24 H8         -12.7900    24.5710   -12.9800 h1         1 VND       0.023700
     25 H9         -13.5160    21.4960   -12.6800 hc         1 VND       0.038700
     26 H10        -14.5270    22.8510   -12.1790 hc         1 VND       0.038700
     27 H11         -9.4060    24.8170   -11.2750 hc         1 VND       0.063700
     28 H12        -11.1470    24.7070   -11.3330 hc         1 VND       0.063700
     29 H13        -15.8980    20.8040   -12.5540 hc         1 VND       0.030033
     30 H14        -16.3540    22.0620   -13.7230 hc         1 VND       0.030033
     31 H15        -15.3270    20.7010   -14.2330 hc         1 VND       0.030033
     32 H16        -10.0090    24.6890   -13.6040 h1         1 VND       0.068700
     33 H17         -7.9590    23.5400   -12.9330 h1         1 VND       0.030700
     34 H18        -14.5290    23.7120   -14.5550 hc         1 VND       0.045200
     35 H19        -13.4670    22.3930   -15.0320 hc         1 VND       0.045200
     36 H20        -11.0430    21.1840   -10.4150 ho         1 VND       0.518000
     37 H21         -9.1880    24.4870    -7.7630 ho         1 VND       0.510000
     38 H22         -8.5500    21.0480    -9.1680 ho         1 VND       0.513000
     39 H23         -7.5860    20.2590   -11.8040 ho         1 VND       0.520000
     40 H24         -8.0740    21.7120   -14.5490 ho         1 VND       0.513000
@<TRIPOS>BOND
     1     1     6 1   
     2     1    10 1   
     3     1    18 1   
     4     2     3 1   
     5     2    11 1   
     6     2    16 1   
     7     2    19 1   
     8     3     4 1   
     9     3    15 1   
    10     3    20 1   
    11     4     5 1   
    12     4     8 1   
    13     4    13 1   
    14     5    14 1   
    15     5    21 1   
    16     5    22 1   
    17     6    12 1   
    18     6    23 1   
    19     6    24 1   
    20     7     9 1   
    21     7    12 1   
    22     7    25 1   
    23     7    26 1   
    24     8    10 1   
    25     8    27 1   
    26     8    28 1   
    27     9    29 1   
    28     9    30 1   
    29     9    31 1   
    30    10    11 1   
    31    10    32 1   
    32    11    17 1   
    33    11    33 1   
    34    12    34 1   
    35    12    35 1   
    36    13    36 1   
    37    14    37 1   
    38    15    38 1   
    39    16    39 1   
    40    17    40 1   
@<TRIPOS>SUBSTRUCTURE
     1 VND         1 TEMP              0 ****  ****    0 ROOT
