@<TRIPOS>MOLECULE
VNE
   26    27     1     0     0
SMALL
No Charge or Current Charge


@<TRIPOS>ATOM
      1 C13         -2.5540    -3.2250    11.9040 cc         1 VNE      -0.170000
      2 C15         -2.1890    -4.3590    10.0130 cd         1 VNE      -0.167500
      3 C01          0.3620    -3.8910     5.9680 c3         1 VNE       0.145900
      4 C03          0.4520    -6.1150     7.0410 ca         1 VNE       0.136100
      5 C04          0.6780    -7.4910     6.8870 ca         1 VNE      -0.121000
      6 C05          0.5810    -8.3530     7.9900 ca         1 VNE      -0.084000
      7 C06          0.2420    -7.8430     9.2540 ca         1 VNE      -0.096000
      8 C07         -0.0210    -6.4660     9.4280 ca         1 VNE      -0.120600
      9 C08          0.1120    -5.6020     8.3130 ca         1 VNE      -0.168000
     10 C09         -0.3600    -5.9480    10.8160 c          1 VNE       0.587500
     11 C12         -1.5670    -4.1530    12.1110 cd         1 VNE      -0.167500
     12 C14         -2.9560    -3.3580    10.5530 cc         1 VNE      -0.170000
     13 N11         -1.2830    -4.8710    10.9480 n          1 VNE       0.018200
     14 O10          0.1910    -6.4310    11.8020 o          1 VNE      -0.523100
     15 H1          -2.9710    -2.5300    12.6280 ha         1 VNE       0.134500
     16 H2          -2.2310    -4.7940     9.0220 h4         1 VNE       0.158500
     17 H3           0.5090    -3.4540     4.9730 h1         1 VNE       0.044367
     18 H4          -0.6630    -3.6650     6.2900 h1         1 VNE       0.044367
     19 H5           1.0640    -3.4070     6.6590 h1         1 VNE       0.044367
     20 H6           0.9410    -7.8880     5.9090 ha         1 VNE       0.132000
     21 H7           0.7690    -9.4180     7.8670 ha         1 VNE       0.123000
     22 H8           0.1720    -8.5230    10.1000 ha         1 VNE       0.133000
     23 H9          -0.0220    -4.5330     8.4520 ha         1 VNE       0.130000
     24 H10         -1.0050    -4.3850    13.0090 h4         1 VNE       0.158500
     25 H11         -3.7400    -2.7880    10.0620 ha         1 VNE       0.134500
     26 O02          0.5830    -5.3130     5.9260 os         1 VNE      -0.339100
@<TRIPOS>BOND
     1     1    11 2   
     2     1    12 1   
     3     1    15 1   
     4     2    12 2   
     5     2    13 1   
     6     2    16 1   
     7     3    17 1   
     8     3    18 1   
     9     3    19 1   
    10     3    26 1   
    11     4     5 ar  
    12     4     9 ar  
    13     4    26 1   
    14     5     6 ar  
    15     5    20 1   
    16     6     7 ar  
    17     6    21 1   
    18     7     8 ar  
    19     7    22 1   
    20     8     9 ar  
    21     8    10 1   
    22     9    23 1   
    23    10    13 1   
    24    10    14 2   
    25    11    13 1   
    26    11    24 1   
    27    12    25 1   
@<TRIPOS>SUBSTRUCTURE
     1 VNE         1 TEMP              0 ****  ****    0 ROOT
