@<TRIPOS>MOLECULE
VNE
   26    27     1     0     0
SMALL
abcg2


@<TRIPOS>ATOM
      1 C13         -2.5060    -3.2910    11.8250 cc         1 VNE      -0.170000
      2 C15         -2.2780    -4.5790     9.9960 cd         1 VNE      -0.167500
      3 C01          0.4750    -3.8960     6.0700 c3         1 VNE       0.145900
      4 C03          0.4510    -6.0460     7.0750 ca         1 VNE       0.136100
      5 C04          0.5840    -7.4280     6.9150 ca         1 VNE      -0.121000
      6 C05          0.4240    -8.2720     7.9970 ca         1 VNE      -0.084000
      7 C06          0.1340    -7.7650     9.2570 ca         1 VNE      -0.096000
      8 C07         -0.0260    -6.3950     9.4100 ca         1 VNE      -0.120600
      9 C08          0.1370    -5.5290     8.3280 ca         1 VNE      -0.168000
     10 C09         -0.2930    -5.8660    10.7730 c          1 VNE       0.587500
     11 C12         -1.4200    -4.0830    12.0160 cd         1 VNE      -0.167500
     12 C14         -3.0560    -3.6110    10.5450 cc         1 VNE      -0.170000
     13 N11         -1.2620    -4.8710    10.8910 n          1 VNE       0.018200
     14 O10          0.2970    -6.2670    11.7470 o          1 VNE      -0.523100
     15 H1          -2.8760    -2.5530    12.5190 ha         1 VNE       0.134500
     16 H2          -2.3750    -5.1050     9.0620 h4         1 VNE       0.158500
     17 H3           0.6440    -3.4990     5.0720 h1         1 VNE       0.044367
     18 H4          -0.5340    -3.6240     6.3910 h1         1 VNE       0.044367
     19 H5           1.1990    -3.4450     6.7540 h1         1 VNE       0.044367
     20 H6           0.8170    -7.8280     5.9360 ha         1 VNE       0.132000
     21 H7           0.5300    -9.3400     7.8580 ha         1 VNE       0.123000
     22 H8           0.0160    -8.4310    10.1010 ha         1 VNE       0.133000
     23 H9           0.0380    -4.4620     8.4790 ha         1 VNE       0.130000
     24 H10         -0.7330    -4.1450    12.8420 h4         1 VNE       0.158500
     25 H11         -3.9330    -3.1780    10.0900 ha         1 VNE       0.134500
     26 O02          0.6390    -5.2980     5.9760 os         1 VNE      -0.339100
@<TRIPOS>BOND
     1     1    11 2   
     2     1    12 1   
     3     1    15 1   
     4     2    12 2   
     5     2    13 1   
     6     2    16 1   
     7     3    17 1   
     8     3    18 1   
     9     3    19 1   
    10     3    26 1   
    11     4     5 ar  
    12     4     9 ar  
    13     4    26 1   
    14     5     6 ar  
    15     5    20 1   
    16     6     7 ar  
    17     6    21 1   
    18     7     8 ar  
    19     7    22 1   
    20     8     9 ar  
    21     8    10 1   
    22     9    23 1   
    23    10    13 1   
    24    10    14 2   
    25    11    13 1   
    26    11    24 1   
    27    12    25 1   
@<TRIPOS>SUBSTRUCTURE
     1 VNE         1 TEMP              0 ****  ****    0 ROOT
