@<TRIPOS>MOLECULE
VNF
   49    52     1     0     0
SMALL
No Charge or Current Charge


@<TRIPOS>ATOM
      1 OAA          2.0260     0.5460    -2.1470 o          1 VNF      -0.585100
      2 CAC          5.5510    -3.7850     1.7320 ca         1 VNF      -0.102000
      3 CAD          5.7130    -3.5540     0.3560 ca         1 VNF      -0.107000
      4 CAE          4.8450    -2.8590     2.5180 ca         1 VNF      -0.107000
      5 CAF          2.8900     4.2040    -0.4920 cc         1 VNF       0.235900
      6 CAG          5.1730    -2.3980    -0.2330 ca         1 VNF      -0.096000
      7 CAH          4.3040    -1.7030     1.9300 ca         1 VNF      -0.096000
      8 CAI         -6.1810    -1.1860     0.8790 ca         1 VNF      -0.104000
      9 CAJ         -6.4700     0.8260    -0.4520 ca         1 VNF      -0.104000
     10 CAK         -0.8190     0.4730    -1.8070 ca         1 VNF      -0.071500
     11 CAL         -0.4290    -0.3900     0.4280 ca         1 VNF      -0.071500
     12 CAM         -4.7930    -1.1310     0.6590 ca         1 VNF      -0.089000
     13 CAN         -5.0820     0.8800    -0.6730 ca         1 VNF      -0.089000
     14 CAO         -2.2050     0.4190    -1.5850 ca         1 VNF      -0.109500
     15 CAP         -1.8180    -0.4430     0.6430 ca         1 VNF      -0.109500
     16 CAQ          3.0060     3.2090     0.4390 cd         1 VNF      -0.246000
     17 CAR          4.3310     2.8350    -1.3170 cd         1 VNF       0.396400
     18 CAS          4.4220     1.0890     0.5460 c3         1 VNF       0.058600
     19 NAT          3.7050     3.9790    -1.5650 nc         1 VNF      -0.668000
     20 CAV          1.5810     0.1440    -1.0800 c          1 VNF       0.617700
     21 CAW         -7.0170    -0.2060     0.3230 ca         1 VNF       0.124000
     22 CAX          0.0920     0.0690    -0.8060 ca         1 VNF      -0.149600
     23 CAY         -4.2140    -0.0980    -0.1220 cp         1 VNF      -0.038000
     24 CAZ         -2.7360    -0.0400    -0.3570 cp         1 VNF      -0.013000
     25 CBA          4.4670    -1.4610     0.5490 ca         1 VNF      -0.107300
     26 CBB          3.8810    -0.2110    -0.1030 c3         1 VNF       0.146000
     27 NBC          3.9360     2.3290    -0.0860 na         1 VNF      -0.167500
     28 HAD          6.2580    -4.2710    -0.2540 ha         1 VNF       0.115000
     29 HAE          4.7150    -3.0380     3.5830 ha         1 VNF       0.115000
     30 HAF          2.2610     5.0850    -0.4560 h4         1 VNF       0.038100
     31 HAG          5.3050    -2.2330    -1.3000 ha         1 VNF       0.111000
     32 HAH          3.7560    -0.9990     2.5520 ha         1 VNF       0.111000
     33 HAI         -6.6070    -1.9870     1.4770 ha         1 VNF       0.130500
     34 HAJ         -7.1200     1.5860    -0.8800 ha         1 VNF       0.130500
     35 HAK         -0.4540     0.8300    -2.7680 ha         1 VNF       0.128000
     36 HAL          0.2240    -0.7080     1.2360 ha         1 VNF       0.128000
     37 HAM         -4.1630    -1.9070     1.0880 ha         1 VNF       0.120000
     38 HAN         -4.6760     1.6960    -1.2660 ha         1 VNF       0.120000
     39 HAO         -2.8750     0.7250    -2.3850 ha         1 VNF       0.119500
     40 HAP         -2.1840    -0.7870     1.6060 ha         1 VNF       0.119500
     41 HAQ          2.5140     3.0730     1.3950 h4         1 VNF       0.150000
     42 HAR          5.0590     2.3340    -1.9470 h5         1 VNF       0.055100
     43 HAS          4.1440     1.1110     1.6060 h1         1 VNF       0.070700
     44 HASA         5.5180     1.0810     0.4930 h1         1 VNF       0.070700
     45 HBB          4.1970    -0.2030    -1.1550 h1         1 VNF       0.089700
     46 ClAB        -8.7530    -0.2740     0.5990 cl         1 VNF      -0.200000
     47 NAU          2.4160    -0.2720    -0.0650 ns         1 VNF      -0.502900
     48 HAC          5.9690    -4.6800     2.1880 ha         1 VNF       0.116000
     49 HNAU         1.9770    -0.6190     0.7750 hn         1 VNF       0.316500
@<TRIPOS>BOND
     1     1    20 2   
     2     2     3 ar  
     3     2     4 ar  
     4     2    48 1   
     5     3     6 ar  
     6     3    28 1   
     7     4     7 ar  
     8     4    29 1   
     9     5    16 2   
    10     5    19 1   
    11     5    30 1   
    12     6    25 ar  
    13     6    31 1   
    14     7    25 ar  
    15     7    32 1   
    16     8    12 ar  
    17     8    21 ar  
    18     8    33 1   
    19     9    13 ar  
    20     9    21 ar  
    21     9    34 1   
    22    10    14 ar  
    23    10    22 ar  
    24    10    35 1   
    25    11    15 ar  
    26    11    22 ar  
    27    11    36 1   
    28    12    23 ar  
    29    12    37 1   
    30    13    23 ar  
    31    13    38 1   
    32    14    24 ar  
    33    14    39 1   
    34    15    24 ar  
    35    15    40 1   
    36    16    27 1   
    37    16    41 1   
    38    17    19 2   
    39    17    27 1   
    40    17    42 1   
    41    18    26 1   
    42    18    27 1   
    43    18    43 1   
    44    18    44 1   
    45    20    22 1   
    46    20    47 1   
    47    21    46 1   
    48    23    24 1   
    49    25    26 1   
    50    26    45 1   
    51    26    47 1   
    52    47    49 1   
@<TRIPOS>SUBSTRUCTURE
     1 VNF         1 TEMP              0 ****  ****    0 ROOT
