@<TRIPOS>MOLECULE
VNF
   49    52     1     0     0
SMALL
abcg2


@<TRIPOS>ATOM
      1 OAA          1.9700    -0.9520    -2.0270 o          1 VNF      -0.585100
      2 CAC          5.7040    -3.8370     0.6790 ca         1 VNF      -0.102000
      3 CAD          6.2540    -2.9500    -0.2370 ca         1 VNF      -0.107000
      4 CAE          4.5200    -3.5080     1.3260 ca         1 VNF      -0.107000
      5 CAF          2.5700     4.0690     0.6940 cc         1 VNF       0.235900
      6 CAG          5.6200    -1.7430    -0.5020 ca         1 VNF      -0.096000
      7 CAH          3.8900    -2.3000     1.0610 ca         1 VNF      -0.096000
      8 CAI         -6.0260     0.6290     1.2580 ca         1 VNF      -0.104000
      9 CAJ         -6.4050    -0.2010    -0.9740 ca         1 VNF      -0.104000
     10 CAK         -0.7890    -1.2540    -1.3010 ca         1 VNF      -0.071500
     11 CAL         -0.4340     0.7050     0.0380 ca         1 VNF      -0.071500
     12 CAM         -4.6600     0.5050     1.0640 ca         1 VNF      -0.089000
     13 CAN         -5.0360    -0.3190    -1.1530 ca         1 VNF      -0.089000
     14 CAO         -2.1540    -1.1410    -1.1030 ca         1 VNF      -0.109500
     15 CAP         -1.8020     0.8260     0.2190 ca         1 VNF      -0.109500
     16 CAQ          2.8510     2.8970     1.3350 cd         1 VNF      -0.246000
     17 CAR          4.0930     3.1180    -0.4470 cd         1 VNF       0.396400
     18 CAS          4.3980     0.9880     0.8160 c3         1 VNF       0.058600
     19 NAT          3.3530     4.1970    -0.4180 nc         1 VNF      -0.668000
     20 CAV          1.5490    -0.4840    -0.9800 c          1 VNF       0.617700
     21 CAW         -6.8900     0.2730     0.2340 ca         1 VNF       0.124000
     22 CAX          0.0870    -0.3400    -0.7210 ca         1 VNF      -0.149600
     23 CAY         -4.1410     0.0300    -0.1410 cp         1 VNF      -0.038000
     24 CAZ         -2.6850    -0.0980    -0.3410 cp         1 VNF      -0.013000
     25 CBA          4.4340    -1.4080     0.1430 ca         1 VNF      -0.107300
     26 CBB          3.7970    -0.0620    -0.1270 c3         1 VNF       0.146000
     27 NBC          3.8360     2.3010     0.5980 na         1 VNF      -0.167500
     28 HAD          7.1730    -3.1990    -0.7500 ha         1 VNF       0.115000
     29 HAE          4.0830    -4.1950     2.0390 ha         1 VNF       0.115000
     30 HAF          1.8530     4.8240     0.9800 h4         1 VNF       0.038100
     31 HAG          6.0520    -1.0600    -1.2240 ha         1 VNF       0.111000
     32 HAH          2.9620    -2.0630     1.5670 ha         1 VNF       0.111000
     33 HAI         -6.4100     0.9920     2.2020 ha         1 VNF       0.130500
     34 HAJ         -7.0820    -0.4700    -1.7740 ha         1 VNF       0.130500
     35 HAK         -0.4030    -2.0710    -1.8960 ha         1 VNF       0.128000
     36 HAL          0.2140     1.4590     0.4680 ha         1 VNF       0.128000
     37 HAM         -3.9960     0.7670     1.8780 ha         1 VNF       0.120000
     38 HAN         -4.6690    -0.6710    -2.1080 ha         1 VNF       0.120000
     39 HAO         -2.8080    -1.8870    -1.5350 ha         1 VNF       0.119500
     40 HAP         -2.1830     1.6680     0.7820 ha         1 VNF       0.119500
     41 HAQ          2.4600     2.4530     2.2360 h4         1 VNF       0.150000
     42 HAR          4.8360     2.8810    -1.1940 h5         1 VNF       0.055100
     43 HAS          4.2260     0.7110     1.8570 h1         1 VNF       0.070700
     44 HASA         5.4770     1.0260     0.6660 h1         1 VNF       0.070700
     45 HBB          4.0350     0.2310    -1.1530 h1         1 VNF       0.089700
     46 CLAB        -8.6000     0.4260     0.4680 cl         1 VNF      -0.200000
     47 NAU          2.3610    -0.0580     0.0060 ns         1 VNF      -0.502900
     48 HAC          6.1920    -4.7810     0.8840 ha         1 VNF       0.116000
     49 HNAU         1.9620     0.1560     0.9060 hn         1 VNF       0.316500
@<TRIPOS>BOND
     1     1    20 2   
     2     2     3 ar  
     3     2     4 ar  
     4     2    48 1   
     5     3     6 ar  
     6     3    28 1   
     7     4     7 ar  
     8     4    29 1   
     9     5    16 2   
    10     5    19 1   
    11     5    30 1   
    12     6    25 ar  
    13     6    31 1   
    14     7    25 ar  
    15     7    32 1   
    16     8    12 ar  
    17     8    21 ar  
    18     8    33 1   
    19     9    13 ar  
    20     9    21 ar  
    21     9    34 1   
    22    10    14 ar  
    23    10    22 ar  
    24    10    35 1   
    25    11    15 ar  
    26    11    22 ar  
    27    11    36 1   
    28    12    23 ar  
    29    12    37 1   
    30    13    23 ar  
    31    13    38 1   
    32    14    24 ar  
    33    14    39 1   
    34    15    24 ar  
    35    15    40 1   
    36    16    27 1   
    37    16    41 1   
    38    17    19 2   
    39    17    27 1   
    40    17    42 1   
    41    18    26 1   
    42    18    27 1   
    43    18    43 1   
    44    18    44 1   
    45    20    22 1   
    46    20    47 1   
    47    21    46 1   
    48    23    24 1   
    49    25    26 1   
    50    26    45 1   
    51    26    47 1   
    52    47    49 1   
@<TRIPOS>SUBSTRUCTURE
     1 VNF         1 TEMP              0 ****  ****    0 ROOT
