@<TRIPOS>MOLECULE
VNI
   54    58     1     0     0
SMALL
bcc


@<TRIPOS>ATOM
      1 O1           1.5530    -0.1340     1.9460 o          1 VNI      -0.576100
      2 C1           1.2020    -0.4260     0.8150 c          1 VNI       0.681700
      3 N1           2.0800    -0.6950    -0.1740 ns         1 VNI      -0.571900
      4 C2           3.5000    -0.7180     0.0550 c3         1 VNI       0.144000
      5 C3           4.1680    -1.6530    -0.9610 c3         1 VNI       0.031300
      6 N2           3.6670    -3.0030    -0.8620 na         1 VNI      -0.191900
      7 C4           2.6800    -3.5680    -1.6220 cc         1 VNI      -0.277600
      8 C5           2.4840    -4.8130    -1.1000 cd         1 VNI       0.305200
      9 N3           3.3210    -5.0170    -0.0400 nd         1 VNI      -0.667000
     10 C6           4.0100    -3.9120     0.0770 cc         1 VNI       0.398400
     11 C7           4.1400     0.6520    -0.0140 ca         1 VNI      -0.098300
     12 C8           3.5880     1.6650    -0.7910 ca         1 VNI      -0.102000
     13 C9           4.1710     2.9170    -0.8860 ca         1 VNI      -0.118000
     14 C10          5.3380     3.1670    -0.1840 ca         1 VNI       0.038400
     15 CL1          6.0800     4.7250    -0.2790 cl         1 VNI      -0.091400
     16 C11          5.9250     2.1880     0.5990 ca         1 VNI      -0.112000
     17 C12          5.3180     0.9440     0.6690 ca         1 VNI       0.045400
     18 CL2          6.0800    -0.2670     1.6500 cl         1 VNI      -0.099400
     19 C13         -0.2410    -0.5060     0.4410 ca         1 VNI      -0.132600
     20 C14         -0.7070    -1.3650    -0.5530 ca         1 VNI      -0.098000
     21 C15         -2.0540    -1.4190    -0.8570 ca         1 VNI      -0.096500
     22 C16         -2.9580    -0.6080    -0.1710 ca         1 VNI      -0.116500
     23 C17         -2.4970     0.2430     0.8330 ca         1 VNI      -0.096500
     24 C18         -1.1490     0.2830     1.1400 ca         1 VNI      -0.098000
     25 C19         -4.3650    -0.6670    -0.5210 cc         1 VNI       0.514900
     26 N4          -4.9340    -1.3520    -1.4530 nd         1 VNI      -0.351000
     27 N5          -6.2650    -1.0700    -1.3940 nd         1 VNI      -0.359000
     28 C20         -6.4280    -0.2280    -0.4300 cc         1 VNI       0.531900
     29 O2          -5.2600     0.0640     0.1620 os         1 VNI      -0.363800
     30 C21         -7.6570     0.3860     0.0400 ca         1 VNI      -0.147500
     31 C22         -8.8490     0.1170    -0.6340 ca         1 VNI      -0.084500
     32 C23        -10.0320     0.6920    -0.2040 ca         1 VNI      -0.136500
     33 C24        -10.0370     1.5370     0.9000 ca         1 VNI      -0.102000
     34 C25         -8.8520     1.8050     1.5720 ca         1 VNI      -0.136500
     35 C26         -7.6620     1.2340     1.1480 ca         1 VNI      -0.084500
     36 HN1          1.7420    -0.7760    -1.1200 hn         1 VNI       0.317500
     37 H2           3.6620    -1.1230     1.0560 h1         1 VNI       0.106700
     38 H3           4.0020    -1.2940    -1.9770 h1         1 VNI       0.072700
     39 H3A          5.2450    -1.6590    -0.7970 h1         1 VNI       0.072700
     40 H4           2.2330    -3.0540    -2.4570 h4         1 VNI       0.167000
     41 H5           1.7910    -5.5690    -1.4370 h4         1 VNI       0.040100
     42 H6           4.7750    -3.7180     0.8140 h5         1 VNI       0.058100
     43 H8           2.6720     1.4800    -1.3360 ha         1 VNI       0.137000
     44 H9           3.7180     3.6840    -1.4980 ha         1 VNI       0.154000
     45 H11          6.8370     2.3850     1.1450 ha         1 VNI       0.167000
     46 H14         -0.0310    -2.0250    -1.0820 ha         1 VNI       0.150000
     47 H15         -2.4050    -2.0950    -1.6250 ha         1 VNI       0.156000
     48 H17         -3.1800     0.8800     1.3790 ha         1 VNI       0.156000
     49 H18         -0.8010     0.9420     1.9230 ha         1 VNI       0.150000
     50 H22         -8.8480    -0.5390    -1.4950 ha         1 VNI       0.150000
     51 H23        -10.9520     0.4830    -0.7320 ha         1 VNI       0.138500
     52 H24        -10.9620     1.9870     1.2330 ha         1 VNI       0.136000
     53 H25         -8.8520     2.4610     2.4320 ha         1 VNI       0.138500
     54 H26         -6.7480     1.4520     1.6840 ha         1 VNI       0.150000
@<TRIPOS>BOND
     1     1     2 2   
     2     2     3 1   
     3     2    19 1   
     4     3     4 1   
     5     3    36 1   
     6     4     5 1   
     7     4    11 1   
     8     4    37 1   
     9     5     6 1   
    10     5    38 1   
    11     5    39 1   
    12     6     7 1   
    13     6    10 1   
    14     7     8 2   
    15     7    40 1   
    16     8     9 1   
    17     8    41 1   
    18     9    10 2   
    19    10    42 1   
    20    11    12 ar  
    21    11    17 ar  
    22    12    13 ar  
    23    12    43 1   
    24    13    14 ar  
    25    13    44 1   
    26    14    15 1   
    27    14    16 ar  
    28    16    17 ar  
    29    16    45 1   
    30    17    18 1   
    31    19    20 ar  
    32    19    24 ar  
    33    20    21 ar  
    34    20    46 1   
    35    21    22 ar  
    36    21    47 1   
    37    22    23 ar  
    38    22    25 1   
    39    23    24 ar  
    40    23    48 1   
    41    24    49 1   
    42    25    26 2   
    43    25    29 1   
    44    26    27 1   
    45    27    28 2   
    46    28    29 1   
    47    28    30 1   
    48    30    31 ar  
    49    30    35 ar  
    50    31    32 ar  
    51    31    50 1   
    52    32    33 ar  
    53    32    51 1   
    54    33    34 ar  
    55    33    52 1   
    56    34    35 ar  
    57    34    53 1   
    58    35    54 1   
@<TRIPOS>SUBSTRUCTURE
     1 VNI         1 TEMP              0 ****  ****    0 ROOT
