@<TRIPOS>MOLECULE
VNI
   54    58     1     0     0
SMALL
No Charge or Current Charge


@<TRIPOS>ATOM
      1 O1           1.5670     0.1270     1.9190 o          1 VNI      -0.576100
      2 C1           1.2220    -0.2310     0.8010 c          1 VNI       0.614700
      3 N1           2.1470    -0.6470    -0.1310 ns         1 VNI      -0.504900
      4 C2           3.5910    -0.7440     0.1140 c3         1 VNI       0.144000
      5 C3           4.2370    -1.8370    -0.7690 c3         1 VNI       0.060600
      6 N2           3.6260    -3.1670    -0.5980 na         1 VNI      -0.170500
      7 C4           2.7750    -3.7970    -1.4810 cc         1 VNI      -0.245000
      8 C5           2.4600    -4.9960    -0.8960 cd         1 VNI       0.239900
      9 N3           3.0950    -5.1240     0.3230 nd         1 VNI      -0.667000
     10 C6           3.7940    -4.0080     0.4830 cc         1 VNI       0.398400
     11 C7           4.2910     0.6050    -0.0840 ca         1 VNI      -0.098300
     12 C8           3.9070     1.4500    -1.1500 ca         1 VNI      -0.084000
     13 C9           4.5420     2.6880    -1.3460 ca         1 VNI      -0.100000
     14 C10          5.5720     3.0930    -0.4850 ca         1 VNI       0.130000
     15 Cl1          6.3670     4.6420    -0.7330 cl         1 VNI      -0.183000
     16 C11          5.9730     2.2600     0.5680 ca         1 VNI      -0.094000
     17 C12          5.3420     1.0210     0.7700 ca         1 VNI       0.137000
     18 Cl2          5.9150     0.0070     2.0960 cl         1 VNI      -0.191000
     19 C13         -0.2320    -0.2440     0.3700 ca         1 VNI      -0.132600
     20 C14         -0.6380    -0.6780    -0.9150 ca         1 VNI      -0.080000
     21 C15         -1.9960    -0.6760    -1.2780 ca         1 VNI      -0.078500
     22 C16         -2.9870    -0.2430    -0.3720 ca         1 VNI      -0.116500
     23 C17         -2.5850     0.1900     0.9100 ca         1 VNI      -0.078500
     24 C18         -1.2280     0.1880     1.2740 ca         1 VNI      -0.080000
     25 C19         -4.4050    -0.2440    -0.7580 cc         1 VNI       0.470500
     26 N4          -4.9240    -0.6200    -1.9180 nd         1 VNI      -0.351000
     27 N5          -6.2790    -0.4420    -1.8020 nd         1 VNI      -0.359000
     28 C20         -6.4850     0.0290    -0.5810 cc         1 VNI       0.487500
     29 O2          -5.3390     0.1770     0.1310 os         1 VNI      -0.275000
     30 C21         -7.7700     0.3840     0.0350 ca         1 VNI      -0.147500
     31 C22         -8.9760     0.2370    -0.6880 ca         1 VNI      -0.066500
     32 C23        -10.2070     0.5770    -0.1010 ca         1 VNI      -0.118500
     33 C24        -10.2510     1.0660     1.2140 ca         1 VNI      -0.084000
     34 C25         -9.0600     1.2160     1.9430 ca         1 VNI      -0.118500
     35 C26         -7.8270     0.8780     1.3590 ca         1 VNI      -0.066500
     36 HN1          1.7910    -0.9490    -1.0270 hn         1 VNI       0.317500
     37 H2           3.7120    -1.0620     1.1580 h1         1 VNI       0.106700
     38 H3           4.1590    -1.5440    -1.8230 h1         1 VNI       0.072700
     39 H3A          5.3040    -1.9100    -0.5240 h1         1 VNI       0.072700
     40 H4           2.4650    -3.3690    -2.4260 h4         1 VNI       0.149000
     41 H5           1.8130    -5.7730    -1.2850 h4         1 VNI       0.040100
     42 H6           4.4200    -3.7530     1.3300 h5         1 VNI       0.058100
     43 H8           3.1140     1.1510    -1.8330 ha         1 VNI       0.119000
     44 H9           4.2370     3.3330    -2.1670 ha         1 VNI       0.136000
     45 H11          6.7780     2.5720     1.2280 ha         1 VNI       0.149000
     46 H14          0.0850    -1.0230    -1.6500 ha         1 VNI       0.132000
     47 H15         -2.2750    -1.0170    -2.2730 ha         1 VNI       0.138000
     48 H17         -3.3220     0.5310     1.6340 ha         1 VNI       0.138000
     49 H18         -0.9520     0.5290     2.2700 ha         1 VNI       0.132000
     50 H22         -8.9640    -0.1400    -1.7090 ha         1 VNI       0.132000
     51 H23        -11.1290     0.4600    -0.6670 ha         1 VNI       0.120500
     52 H24        -11.2050     1.3280     1.6680 ha         1 VNI       0.118000
     53 H25         -9.0920     1.5950     2.9620 ha         1 VNI       0.120500
     54 H26         -6.9170     1.0030     1.9430 ha         1 VNI       0.132000
@<TRIPOS>BOND
     1     1     2 2   
     2     2     3 1   
     3     2    19 1   
     4     3     4 1   
     5     3    36 1   
     6     4     5 1   
     7     4    11 1   
     8     4    37 1   
     9     5     6 1   
    10     5    38 1   
    11     5    39 1   
    12     6     7 1   
    13     6    10 1   
    14     7     8 2   
    15     7    40 1   
    16     8     9 1   
    17     8    41 1   
    18     9    10 2   
    19    10    42 1   
    20    11    12 ar  
    21    11    17 ar  
    22    12    13 ar  
    23    12    43 1   
    24    13    14 ar  
    25    13    44 1   
    26    14    15 1   
    27    14    16 ar  
    28    16    17 ar  
    29    16    45 1   
    30    17    18 1   
    31    19    20 ar  
    32    19    24 ar  
    33    20    21 ar  
    34    20    46 1   
    35    21    22 ar  
    36    21    47 1   
    37    22    23 ar  
    38    22    25 1   
    39    23    24 ar  
    40    23    48 1   
    41    24    49 1   
    42    25    26 2   
    43    25    29 1   
    44    26    27 1   
    45    27    28 2   
    46    28    29 1   
    47    28    30 1   
    48    30    31 ar  
    49    30    35 ar  
    50    31    32 ar  
    51    31    50 1   
    52    32    33 ar  
    53    32    51 1   
    54    33    34 ar  
    55    33    52 1   
    56    34    35 ar  
    57    34    53 1   
    58    35    54 1   
@<TRIPOS>SUBSTRUCTURE
     1 VNI         1 TEMP              0 ****  ****    0 ROOT
