@<TRIPOS>MOLECULE
VNJ
   19    19     1     0     0
SMALL
bcc


@<TRIPOS>ATOM
      1 CAH          2.4470     1.5440    -0.0740 c3         1 VNJ      -0.192100
      2 CAG          1.7150     0.2270     0.0160 c          1 VNJ       0.601700
      3 OAI          2.3610    -0.8120     0.0850 o          1 VNJ      -0.580100
      4 CAA          0.2460     0.2340     0.0110 ca         1 VNJ      -0.287600
      5 CAB         -0.4460     1.4570    -0.0500 ca         1 VNJ      -0.035000
      6 CAC         -1.8190     1.5310    -0.0730 ca         1 VNJ      -0.215000
      7 CAD         -2.5510     0.3400    -0.0400 ca         1 VNJ      -0.041000
      8 CAE         -1.9160    -0.8770     0.0210 ca         1 VNJ      -0.247000
      9 CAF         -0.5070    -0.9720     0.0560 ca         1 VNJ       0.272600
     10 NAJ          0.0540    -2.1930     0.1390 nv         1 VNJ      -0.867200
     11 HAH1         2.1750     2.0870    -0.9800 hc         1 VNJ       0.059700
     12 HAH2         2.2090     2.1900     0.7720 hc         1 VNJ       0.059700
     13 HAH3         3.5200     1.3670    -0.0830 hc         1 VNJ       0.059700
     14 HAB          0.1210     2.3780    -0.0810 ha         1 VNJ       0.125000
     15 HAC         -2.3200     2.4880    -0.1200 ha         1 VNJ       0.135000
     16 HAD         -3.6330     0.3690    -0.0610 ha         1 VNJ       0.127000
     17 HAE         -2.5000    -1.7900     0.0490 ha         1 VNJ       0.129000
     18 HAJ1         1.0530    -2.2930     0.0970 hn         1 VNJ       0.447800
     19 HAJ2        -0.5210    -3.0140     0.0720 hn         1 VNJ       0.447800
@<TRIPOS>BOND
     1     1     2 1   
     2     1    11 1   
     3     1    12 1   
     4     1    13 1   
     5     2     3 2   
     6     2     4 1   
     7     4     5 ar  
     8     4     9 ar  
     9     5     6 ar  
    10     5    14 1   
    11     6     7 ar  
    12     6    15 1   
    13     7     8 ar  
    14     7    16 1   
    15     8     9 ar  
    16     8    17 1   
    17     9    10 1   
    18    10    18 1   
    19    10    19 1   
@<TRIPOS>SUBSTRUCTURE
     1 VNJ         1 TEMP              0 ****  ****    0 ROOT
