@<TRIPOS>MOLECULE
VNJ
   19    19     1     0     0
SMALL
No Charge or Current Charge


@<TRIPOS>ATOM
      1 CAH          2.5210     1.4910     0.1240 c3         1 VNJ      -0.192100
      2 CAG          1.7410     0.2170    -0.2080 c          1 VNJ       0.601700
      3 OAI          2.3560    -0.7890    -0.5440 o          1 VNJ      -0.580100
      4 CAA          0.2300     0.2400    -0.1230 ca         1 VNJ      -0.287600
      5 CAB         -0.4640     1.4640    -0.2810 ca         1 VNJ      -0.017000
      6 CAC         -1.8660     1.5060    -0.2090 ca         1 VNJ      -0.197000
      7 CAD         -2.5970     0.3350     0.0240 ca         1 VNJ      -0.023000
      8 CAE         -1.9180    -0.8810     0.1840 ca         1 VNJ      -0.229000
      9 CAF         -0.5200    -0.9310     0.1130 ca         1 VNJ       0.411000
     10 NAJ          0.0790    -2.1380     0.2950 nv         1 VNJ      -1.116000
     11 HAH1         2.3700     2.2140    -0.6850 hc         1 VNJ       0.059700
     12 HAH2         2.0750     1.9850     0.9950 hc         1 VNJ       0.059700
     13 HAH3         3.5920     1.3000     0.2560 hc         1 VNJ       0.059700
     14 HAB          0.0690     2.3920    -0.4730 ha         1 VNJ       0.107000
     15 HAC         -2.3860     2.4530    -0.3360 ha         1 VNJ       0.117000
     16 HAD         -3.6840     0.3690     0.0800 ha         1 VNJ       0.109000
     17 HAE         -2.4880    -1.7870     0.3710 ha         1 VNJ       0.111000
     18 HAJ1         1.0560    -2.1970     0.0010 hn         1 VNJ       0.503000
     19 HAJ2        -0.4770    -2.9820     0.1710 hn         1 VNJ       0.503000
@<TRIPOS>BOND
     1     1     2 1   
     2     1    11 1   
     3     1    12 1   
     4     1    13 1   
     5     2     3 2   
     6     2     4 1   
     7     4     5 ar  
     8     4     9 ar  
     9     5     6 ar  
    10     5    14 1   
    11     6     7 ar  
    12     6    15 1   
    13     7     8 ar  
    14     7    16 1   
    15     8     9 ar  
    16     8    17 1   
    17     9    10 1   
    18    10    18 1   
    19    10    19 1   
@<TRIPOS>SUBSTRUCTURE
     1 VNJ         1 TEMP              0 ****  ****    0 ROOT
