@<TRIPOS>MOLECULE
VNK
   88    87     1     0     0
SMALL
bcc


@<TRIPOS>ATOM
      1 C27         -5.3630    -0.0510    -0.7060 c3         1 VNK      -0.154400
      2 C1          -4.0160    -0.4220    -0.1340 c          1 VNK       0.666100
      3 O1          -3.4400     0.2880     0.6800 o          1 VNK      -0.616100
      4 C28         -6.4390    -0.0260     0.3790 c3         1 VNK      -0.070400
      5 C29         -7.7900     0.4370    -0.1490 c3         1 VNK      -0.076400
      6 C30         -8.8770     0.4290     0.9180 c3         1 VNK      -0.075400
      7 C31        -10.2200     0.9230     0.3990 c3         1 VNK      -0.089100
      8 N1          -3.4990    -1.5930    -0.5460 ns         1 VNK      -0.556900
      9 C2          -2.2080    -2.0550    -0.1000 c3         1 VNK       0.040700
     10 C5          -1.1190    -1.1840    -0.7280 c          1 VNK       0.658100
     11 O3          -1.1360    -0.9240    -1.9210 o          1 VNK      -0.617100
     12 C3          -2.0070    -3.5320    -0.4770 c3         1 VNK      -0.067700
     13 C26         -0.6140    -4.0160    -0.0870 c3         1 VNK      -0.091600
     14 C4          -3.0690    -4.4020     0.1900 c3         1 VNK      -0.091600
     15 C10          2.2270    -0.5380     0.3660 c          1 VNK       0.658100
     16 C9          -0.6160     3.5780    -0.0590 c          1 VNK       0.678100
     17 N2          -0.1630    -0.7700     0.1170 ns         1 VNK      -0.551900
     18 O7           0.3020     4.2020     0.4600 o          1 VNK      -0.617100
     19 N5          -1.8030     4.1560    -0.3390 n          1 VNK      -0.475800
     20 C24         -2.9060     3.5100    -1.0170 c3         1 VNK       0.086800
     21 C25         -2.0300     5.5500    -0.0230 c3         1 VNK       0.086800
     22 C6           0.9660     0.0330    -0.2780 c3         1 VNK       0.024700
     23 C7           0.8180     1.5040     0.1390 c3         1 VNK      -0.073400
     24 N3           3.3340    -0.4100    -0.3770 ns         1 VNK      -0.567900
     25 C11          4.6640    -0.8410     0.0210 c3         1 VNK       0.081700
     26 C12          5.1470    -1.9210    -0.9500 c3         1 VNK      -0.083400
     27 C13          6.5200    -2.5250    -0.6480 c3         1 VNK      -0.057700
     28 C15          6.6030    -3.0890     0.7680 c3         1 VNK      -0.090100
     29 C14          6.8400    -3.6050    -1.6760 c3         1 VNK      -0.090100
     30 C16          5.6150     0.3640     0.1090 c3         1 VNK       0.135100
     31 O6           5.7940     0.9400    -1.1710 oh         1 VNK      -0.595800
     32 C17          5.2140     1.4090     1.1570 c3         1 VNK      -0.090700
     33 C23          5.1340     0.8040     2.5580 c3         1 VNK      -0.089600
     34 C18          6.2010     2.5760     1.1610 c3         1 VNK      -0.089600
     35 H22         -5.2710     0.9430    -1.1530 hc         1 VNK       0.059200
     36 H23         -5.6590    -0.7330    -1.5070 hc         1 VNK       0.059200
     37 H24         -6.5380    -1.0270     0.8110 hc         1 VNK       0.051700
     38 H25         -6.1200     0.6330     1.1910 hc         1 VNK       0.051700
     39 H26         -7.6910     1.4480    -0.5590 hc         1 VNK       0.037200
     40 H27         -8.0970    -0.2000    -0.9850 hc         1 VNK       0.037200
     41 H28         -8.9880    -0.5860     1.3130 hc         1 VNK       0.039200
     42 H29         -8.5600     1.0490     1.7630 hc         1 VNK       0.039200
     43 H30        -10.1520     1.9520     0.0410 hc         1 VNK       0.032367
     44 H31        -10.5720     0.3090    -0.4320 hc         1 VNK       0.032367
     45 H32        -10.9850     0.8940     1.1760 hc         1 VNK       0.032367
     46 H21         -3.9680    -2.1070    -1.2750 hn         1 VNK       0.324500
     47 H13         -2.1640    -1.9760     0.9910 h1         1 VNK       0.077700
     48 H14         -2.1120    -3.6190    -1.5650 hc         1 VNK       0.062700
     49 H15         -0.4370    -3.8840     0.9820 hc         1 VNK       0.040367
     50 H16         -0.5140    -5.0790    -0.3070 hc         1 VNK       0.040367
     51 H17          0.1800    -3.4980    -0.6240 hc         1 VNK       0.040367
     52 H18         -4.0830    -4.1360    -0.1090 hc         1 VNK       0.040367
     53 H19         -2.9180    -5.4500    -0.0700 hc         1 VNK       0.040367
     54 H20         -3.0090    -4.3170     1.2780 hc         1 VNK       0.040367
     55 H7          -1.3200     1.5560    -0.0140 hc         1 VNK       0.075700
     56 H8          -0.4990     1.9910    -1.4940 hc         1 VNK       0.075700
     57 H12         -0.2400    -1.0060     1.0950 hn         1 VNK       0.339500
     58 H4          -3.7780     3.4490    -0.3620 h1         1 VNK       0.040533
     59 H5          -3.1870     4.0800    -1.9040 h1         1 VNK       0.040533
     60 H6          -2.6600     2.5040    -1.3370 h1         1 VNK       0.040533
     61 H1          -1.9230     6.1830    -0.9080 h1         1 VNK       0.040533
     62 H2          -3.0450     5.6730     0.3560 h1         1 VNK       0.040533
     63 H3          -1.3360     5.8960     0.7360 h1         1 VNK       0.040533
     64 H11          1.0450    -0.0220    -1.3650 h1         1 VNK       0.082700
     65 H9           1.6890     2.0520    -0.2250 hc         1 VNK       0.065700
     66 H10          0.8310     1.5730     1.2300 hc         1 VNK       0.065700
     67 H33          3.2190    -0.1060    -1.3320 hn         1 VNK       0.312500
     68 H34          4.5670    -1.2860     1.0110 h1         1 VNK       0.089700
     69 H35          4.4050    -2.7270    -0.9420 hc         1 VNK       0.046200
     70 H36          5.1510    -1.5190    -1.9680 hc         1 VNK       0.046200
     71 H37          7.2810    -1.7430    -0.7480 hc         1 VNK       0.053700
     72 H38          5.8320    -3.8470     0.9310 hc         1 VNK       0.033700
     73 H39          7.5720    -3.5590     0.9430 hc         1 VNK       0.033700
     74 H40          6.4750    -2.3190     1.5310 hc         1 VNK       0.033700
     75 H41          6.8220    -3.2050    -2.6920 hc         1 VNK       0.033700
     76 H42          7.8290    -4.0330    -1.5060 hc         1 VNK       0.033700
     77 H43          6.1140    -4.4200    -1.6280 hc         1 VNK       0.033700
     78 H44          6.6010    -0.0200     0.3960 h1         1 VNK       0.077700
     79 H45          5.0370     1.5030    -1.3640 ho         1 VNK       0.398000
     80 H46          4.2220     1.7990     0.8940 hc         1 VNK       0.051700
     81 H47          4.3370     0.0690     2.6600 hc         1 VNK       0.038533
     82 H48          6.0770     0.3240     2.8320 hc         1 VNK       0.038533
     83 H49          4.9440     1.5860     3.2950 hc         1 VNK       0.038533
     84 H50          6.2590     3.0810     0.1980 hc         1 VNK       0.038533
     85 H51          5.9070     3.3200     1.9030 hc         1 VNK       0.038533
     86 H52          7.2050     2.2330     1.4210 hc         1 VNK       0.038533
     87 O2           2.1940    -1.0190     1.4900 o          1 VNK      -0.609100
     88 C8          -0.4650     2.1090    -0.4060 c3         1 VNK      -0.162400
@<TRIPOS>BOND
     1     1     2 1   
     2     1     4 1   
     3     1    35 1   
     4     1    36 1   
     5     2     3 2   
     6     2     8 1   
     7     4     5 1   
     8     4    37 1   
     9     4    38 1   
    10     5     6 1   
    11     5    39 1   
    12     5    40 1   
    13     6     7 1   
    14     6    41 1   
    15     6    42 1   
    16     7    43 1   
    17     7    44 1   
    18     7    45 1   
    19     8     9 1   
    20     8    46 1   
    21     9    10 1   
    22     9    12 1   
    23     9    47 1   
    24    10    11 2   
    25    10    17 1   
    26    12    13 1   
    27    12    14 1   
    28    12    48 1   
    29    13    49 1   
    30    13    50 1   
    31    13    51 1   
    32    14    52 1   
    33    14    53 1   
    34    14    54 1   
    35    15    22 1   
    36    15    24 1   
    37    15    87 2   
    38    16    18 2   
    39    16    19 1   
    40    16    88 1   
    41    17    22 1   
    42    17    57 1   
    43    19    20 1   
    44    19    21 1   
    45    20    58 1   
    46    20    59 1   
    47    20    60 1   
    48    21    61 1   
    49    21    62 1   
    50    21    63 1   
    51    22    23 1   
    52    22    64 1   
    53    23    65 1   
    54    23    66 1   
    55    23    88 1   
    56    24    25 1   
    57    24    67 1   
    58    25    26 1   
    59    25    30 1   
    60    25    68 1   
    61    26    27 1   
    62    26    69 1   
    63    26    70 1   
    64    27    28 1   
    65    27    29 1   
    66    27    71 1   
    67    28    72 1   
    68    28    73 1   
    69    28    74 1   
    70    29    75 1   
    71    29    76 1   
    72    29    77 1   
    73    30    31 1   
    74    30    32 1   
    75    30    78 1   
    76    31    79 1   
    77    32    33 1   
    78    32    34 1   
    79    32    80 1   
    80    33    81 1   
    81    33    82 1   
    82    33    83 1   
    83    34    84 1   
    84    34    85 1   
    85    34    86 1   
    86    55    88 1   
    87    56    88 1   
@<TRIPOS>SUBSTRUCTURE
     1 VNK         1 TEMP              0 ****  ****    0 ROOT
