@<TRIPOS>MOLECULE
VNK
   88    87     1     0     0
SMALL
No Charge or Current Charge


@<TRIPOS>ATOM
      1 C27         -5.6260     0.2260    -0.4940 c3         1 VNK      -0.154400
      2 C1          -4.3100    -0.2060     0.1580 c          1 VNK       0.599100
      3 O1          -3.8110     0.3970     1.0980 o          1 VNK      -0.616100
      4 C28         -6.8420    -0.1380     0.3910 c3         1 VNK      -0.070400
      5 C29         -8.1910     0.2780    -0.2370 c3         1 VNK      -0.076400
      6 C30         -9.4050    -0.0860     0.6450 c3         1 VNK      -0.075400
      7 C31        -10.7510     0.3290     0.0200 c3         1 VNK      -0.089100
      8 N1          -3.7030    -1.2980    -0.4170 ns         1 VNK      -0.489900
      9 C2          -2.4080    -1.8620     0.0250 c3         1 VNK       0.040700
     10 C5          -1.2520    -1.1080    -0.6990 c          1 VNK       0.591100
     11 O3          -1.3390    -0.6970    -1.8500 o          1 VNK      -0.617100
     12 C3          -2.3720    -3.4050    -0.2090 c3         1 VNK      -0.067700
     13 C26         -1.0170    -4.0420     0.1890 c3         1 VNK      -0.091600
     14 C4          -3.5370    -4.1300     0.5120 c3         1 VNK      -0.091600
     15 C10          2.3700    -0.8250     0.1520 c          1 VNK       0.591100
     16 C9          -0.3690     3.5860     0.0120 c          1 VNK       0.611100
     17 N2          -0.1180    -0.9060     0.0610 ns         1 VNK      -0.484900
     18 O7           0.5670     4.1490     0.5680 o          1 VNK      -0.617100
     19 N5          -1.5410     4.3050    -0.3200 n          1 VNK      -0.408800
     20 C24         -2.7120     3.6520    -0.9540 c3         1 VNK       0.086800
     21 C25         -1.6460     5.7460     0.0060 c3         1 VNK       0.086800
     22 C6           1.0740    -0.1410    -0.3710 c3         1 VNK       0.024700
     23 C7           0.9940     1.3420     0.0920 c3         1 VNK      -0.073400
     24 N3           3.5390    -0.3550    -0.4050 ns         1 VNK      -0.500900
     25 C11          4.8910    -0.8010    -0.0430 c3         1 VNK       0.081700
     26 C12          5.3280    -1.9580    -0.9860 c3         1 VNK      -0.083400
     27 C13          6.7120    -2.6040    -0.6880 c3         1 VNK      -0.057700
     28 C15          6.8190    -3.1600     0.7530 c3         1 VNK      -0.090100
     29 C14          7.0360    -3.7050    -1.7240 c3         1 VNK      -0.090100
     30 C16          5.8800     0.4140     0.0010 c3         1 VNK       0.158300
     31 O6           5.9720     0.9900    -1.3150 oh         1 VNK      -0.658000
     32 C17          5.4840     1.5370     1.0180 c3         1 VNK      -0.090700
     33 C23          5.2870     1.0000     2.4590 c3         1 VNK      -0.089600
     34 C18          6.5060     2.7040     1.0320 c3         1 VNK      -0.089600
     35 H22         -5.6090     1.3140    -0.6310 hc         1 VNK       0.059200
     36 H23         -5.7440    -0.2690    -1.4650 hc         1 VNK       0.059200
     37 H24         -6.8450    -1.2210     0.5700 hc         1 VNK       0.051700
     38 H25         -6.7350     0.3470     1.3700 hc         1 VNK       0.051700
     39 H26         -8.1860     1.3600    -0.4150 hc         1 VNK       0.037200
     40 H27         -8.2980    -0.2080    -1.2150 hc         1 VNK       0.037200
     41 H28         -9.4140    -1.1680     0.8240 hc         1 VNK       0.039200
     42 H29         -9.3030     0.4000     1.6240 hc         1 VNK       0.039200
     43 H30        -10.7870     1.4130    -0.1400 hc         1 VNK       0.032367
     44 H31        -10.8990    -0.1690    -0.9460 hc         1 VNK       0.032367
     45 H32        -11.5810     0.0510     0.6800 hc         1 VNK       0.032367
     46 H21         -4.1670    -1.7110    -1.2160 hn         1 VNK       0.324500
     47 H13         -2.2960    -1.6760     1.1010 h1         1 VNK       0.077700
     48 H14         -2.5000    -3.5780    -1.2860 hc         1 VNK       0.062700
     49 H15         -0.7870    -3.8450     1.2440 hc         1 VNK       0.040367
     50 H16         -1.0440    -5.1290     0.0450 hc         1 VNK       0.040367
     51 H17         -0.1970    -3.6530    -0.4250 hc         1 VNK       0.040367
     52 H18         -4.5110    -3.7780     0.1540 hc         1 VNK       0.040367
     53 H19         -3.4910    -5.2110     0.3320 hc         1 VNK       0.040367
     54 H20         -3.4880    -3.9620     1.5950 hc         1 VNK       0.040367
     55 H7          -1.1950     1.6120     0.0470 hc         1 VNK       0.075700
     56 H8          -0.4570     2.0000    -1.4300 hc         1 VNK       0.075700
     57 H12         -0.1090    -1.3130     0.9910 hn         1 VNK       0.339500
     58 H4          -3.1230     2.8900    -0.2800 h1         1 VNK       0.040533
     59 H5          -3.4990     4.3860    -1.1680 h1         1 VNK       0.040533
     60 H6          -2.4140     3.1800    -1.8980 h1         1 VNK       0.040533
     61 H1          -0.8300     6.2950    -0.4810 h1         1 VNK       0.040533
     62 H2          -2.6020     6.1590    -0.3380 h1         1 VNK       0.040533
     63 H3          -1.5730     5.8840     1.0930 h1         1 VNK       0.040533
     64 H11          1.1310    -0.1640    -1.4670 h1         1 VNK       0.082700
     65 H9           1.8670     1.8830    -0.2970 hc         1 VNK       0.065700
     66 H10          1.0670     1.3780     1.1870 hc         1 VNK       0.065700
     67 H33          3.4610     0.3780    -1.1000 hn         1 VNK       0.312500
     68 H34          4.8430    -1.2210     0.9690 h1         1 VNK       0.089700
     69 H35          4.5640    -2.7440    -0.9430 hc         1 VNK       0.046200
     70 H36          5.3260    -1.5900    -2.0200 hc         1 VNK       0.046200
     71 H37          7.4820    -1.8320    -0.8030 hc         1 VNK       0.053700
     72 H38          6.0270    -3.8920     0.9500 hc         1 VNK       0.033700
     73 H39          7.7870    -3.6540     0.9050 hc         1 VNK       0.033700
     74 H40          6.7410    -2.3570     1.4960 hc         1 VNK       0.033700
     75 H41          7.0130    -3.2980    -2.7420 hc         1 VNK       0.033700
     76 H42          8.0370    -4.1190    -1.5500 hc         1 VNK       0.033700
     77 H43          6.3110    -4.5250    -1.6640 hc         1 VNK       0.033700
     78 H44          6.8630     0.0330     0.3100 h1         1 VNK       0.077700
     79 H45          6.6420     1.7050    -1.2690 ho         1 VNK       0.437000
     80 H46          4.5220     1.9610     0.7010 hc         1 VNK       0.051700
     81 H47          4.4320     0.3160     2.5180 hc         1 VNK       0.038533
     82 H48          6.1820     0.4690     2.8050 hc         1 VNK       0.038533
     83 H49          5.0870     1.8220     3.1570 hc         1 VNK       0.038533
     84 H50          6.5630     3.2010     0.0560 hc         1 VNK       0.038533
     85 H51          6.2150     3.4650     1.7660 hc         1 VNK       0.038533
     86 H52          7.5080     2.3430     1.2950 hc         1 VNK       0.038533
     87 O2           2.3640    -1.7110     0.9980 o          1 VNK      -0.609100
     88 C8          -0.2940     2.0890    -0.3500 c3         1 VNK      -0.162400
@<TRIPOS>BOND
     1     1     2 1   
     2     1     4 1   
     3     1    35 1   
     4     1    36 1   
     5     2     3 2   
     6     2     8 1   
     7     4     5 1   
     8     4    37 1   
     9     4    38 1   
    10     5     6 1   
    11     5    39 1   
    12     5    40 1   
    13     6     7 1   
    14     6    41 1   
    15     6    42 1   
    16     7    43 1   
    17     7    44 1   
    18     7    45 1   
    19     8     9 1   
    20     8    46 1   
    21     9    10 1   
    22     9    12 1   
    23     9    47 1   
    24    10    11 2   
    25    10    17 1   
    26    12    13 1   
    27    12    14 1   
    28    12    48 1   
    29    13    49 1   
    30    13    50 1   
    31    13    51 1   
    32    14    52 1   
    33    14    53 1   
    34    14    54 1   
    35    15    22 1   
    36    15    24 1   
    37    15    87 2   
    38    16    18 2   
    39    16    19 1   
    40    16    88 1   
    41    17    22 1   
    42    17    57 1   
    43    19    20 1   
    44    19    21 1   
    45    20    58 1   
    46    20    59 1   
    47    20    60 1   
    48    21    61 1   
    49    21    62 1   
    50    21    63 1   
    51    22    23 1   
    52    22    64 1   
    53    23    65 1   
    54    23    66 1   
    55    23    88 1   
    56    24    25 1   
    57    24    67 1   
    58    25    26 1   
    59    25    30 1   
    60    25    68 1   
    61    26    27 1   
    62    26    69 1   
    63    26    70 1   
    64    27    28 1   
    65    27    29 1   
    66    27    71 1   
    67    28    72 1   
    68    28    73 1   
    69    28    74 1   
    70    29    75 1   
    71    29    76 1   
    72    29    77 1   
    73    30    31 1   
    74    30    32 1   
    75    30    78 1   
    76    31    79 1   
    77    32    33 1   
    78    32    34 1   
    79    32    80 1   
    80    33    81 1   
    81    33    82 1   
    82    33    83 1   
    83    34    84 1   
    84    34    85 1   
    85    34    86 1   
    86    55    88 1   
    87    56    88 1   
@<TRIPOS>SUBSTRUCTURE
     1 VNK         1 TEMP              0 ****  ****    0 ROOT
