@<TRIPOS>MOLECULE
VNL
   19    19     1     0     0
SMALL
abcg2


@<TRIPOS>ATOM
      1 C1          -1.1650    -0.2590     0.0590 ca         1 VNL      -0.134600
      2 CO1         -0.8330    -1.6060     0.0420 ca         1 VNL      -0.085000
      3 CO2         -0.1350     0.6840     0.0120 ca         1 VNL      -0.122000
      4 CM1          0.4940    -2.0140    -0.0220 ca         1 VNL      -0.153000
      5 CM2          1.1900     0.2890    -0.0520 ca         1 VNL       0.005100
      6 OM           2.2570     1.1220    -0.1020 os         1 VNL      -0.388100
      7 CZ           1.5140    -1.0780    -0.0700 ca         1 VNL       0.083100
      8 CC          -2.6140     0.1950     0.1270 c          1 VNL       0.714600
      9 CV           2.0250     2.5140    -0.0760 c3         1 VNL       0.164900
     10 O1          -3.4820    -0.7010     0.1400 o          1 VNL      -0.723500
     11 O2          -2.8170     1.4250     0.1630 o          1 VNL      -0.723500
     12 O3           2.7950    -1.4950    -0.1320 oh         1 VNL      -0.559100
     13 HO1         -1.6160    -2.3520     0.0770 ha         1 VNL       0.130000
     14 HO2         -0.3960     1.7340     0.0270 ha         1 VNL       0.133000
     15 HM1          0.7460    -3.0680    -0.0350 ha         1 VNL       0.103000
     16 HV1          1.5150     2.8240     0.8400 h1         1 VNL       0.031033
     17 HV2          3.0010     2.9930    -0.1140 h1         1 VNL       0.031033
     18 HV3          1.4370     2.8450    -0.9360 h1         1 VNL       0.031033
     19 HO3          3.3880    -0.7350    -0.1630 ho         1 VNL       0.463000
@<TRIPOS>BOND
     1     1     2 ar  
     2     1     3 ar  
     3     1     8 1   
     4     2     4 ar  
     5     2    13 1   
     6     3     5 ar  
     7     3    14 1   
     8     4     7 ar  
     9     4    15 1   
    10     5     6 1   
    11     5     7 ar  
    12     6     9 1   
    13     7    12 1   
    14     8    10 1   
    15     8    11 1   
    16     9    16 1   
    17     9    17 1   
    18     9    18 1   
    19    12    19 1   
@<TRIPOS>SUBSTRUCTURE
     1 VNL         1 TEMP              0 ****  ****    0 ROOT
