@<TRIPOS>MOLECULE
VNL
   19    19     1     0     0
SMALL
No Charge or Current Charge


@<TRIPOS>ATOM
      1 C1          -1.1850    -0.2710     0.0600 ca         1 VNL      -0.134600
      2 CO1         -0.8580    -1.6480     0.0380 ca         1 VNL      -0.085000
      3 CO2         -0.1320     0.6780     0.0150 ca         1 VNL      -0.122000
      4 CM1          0.4820    -2.0670    -0.0260 ca         1 VNL      -0.153000
      5 CM2          1.2160     0.2580    -0.0500 ca         1 VNL       0.005100
      6 OM           2.2740     1.1520    -0.0950 os         1 VNL      -0.388100
      7 CZ           1.5120    -1.1180    -0.0700 ca         1 VNL       0.083100
      8 CC          -2.6390     0.1790     0.1290 c          1 VNL       0.714600
      9 CV           2.0780     2.5790    -0.0790 c3         1 VNL       0.164900
     10 O1          -3.5150    -0.6740     0.1650 o          1 VNL      -0.723500
     11 O2          -2.8830     1.3770     0.1470 o          1 VNL      -0.723500
     12 O3           2.8120    -1.5240    -0.1320 oh         1 VNL      -0.559100
     13 HO1         -1.6440    -2.4000     0.0710 ha         1 VNL       0.130000
     14 HO2         -0.3770     1.7360     0.0310 ha         1 VNL       0.133000
     15 HM1          0.7180    -3.1280    -0.0420 ha         1 VNL       0.103000
     16 HV1          1.5660     2.8920     0.8400 h1         1 VNL       0.031033
     17 HV2          3.0460     3.0960    -0.1210 h1         1 VNL       0.031033
     18 HV3          1.4830     2.9010    -0.9430 h1         1 VNL       0.031033
     19 HO3          3.3510    -0.7020    -0.1530 ho         1 VNL       0.463000
@<TRIPOS>BOND
     1     1     2 ar  
     2     1     3 ar  
     3     1     8 1   
     4     2     4 ar  
     5     2    13 1   
     6     3     5 ar  
     7     3    14 1   
     8     4     7 ar  
     9     4    15 1   
    10     5     6 1   
    11     5     7 ar  
    12     6     9 1   
    13     7    12 1   
    14     8    10 1   
    15     8    11 1   
    16     9    16 1   
    17     9    17 1   
    18     9    18 1   
    19    12    19 1   
@<TRIPOS>SUBSTRUCTURE
     1 VNL         1 TEMP              0 ****  ****    0 ROOT
