@<TRIPOS>MOLECULE
VNN
   31    32     1     0     0
SMALL
abcg2


@<TRIPOS>ATOM
      1 N1          26.7810    19.1920    44.5050 n3         1 VNN      -0.724600
      2 C7          26.2130    18.3210    43.4700 c6         1 VNN       0.148800
      3 C8          28.0880    19.7390    44.1080 c6         1 VNN       0.148800
      4 C9          28.2370    19.9260    42.6050 c6         1 VNN       0.087500
      5 C1          28.2940    15.7470    38.1590 cc         1 VNN      -0.198300
      6 C6          27.3020    17.6220    42.6750 c6         1 VNN       0.087500
      7 C4          28.8600    15.9880    40.5770 cc         1 VNN      -0.213000
      8 C3          28.4810    17.1730    40.0060 cd         1 VNN      -0.157600
      9 C2          28.1680    17.0250    38.6180 cd         1 VNN      -0.095000
     10 O           28.9310    19.4870    40.0320 o          1 VNN      -0.608100
     11 S           28.8320    14.7030    39.4400 ss         1 VNN       0.190000
     12 N           28.0870    18.6250    41.9410 n          1 VNN      -0.412800
     13 C10         25.8250    20.2150    44.9030 c3         1 VNN       0.152100
     14 H2          25.5880    18.8930    42.7660 h1         1 VNN       0.051950
     15 H3          25.5680    17.5710    43.9360 h1         1 VNN       0.051950
     16 H4          28.8830    19.0730    44.4570 h1         1 VNN       0.051950
     17 H5          28.2360    20.6980    44.6040 h1         1 VNN       0.051950
     18 H6          29.2200    20.3290    42.3660 h1         1 VNN       0.057450
     19 H7          27.4930    20.6320    42.2230 h1         1 VNN       0.057450
     20 H8          26.8490    16.9350    41.9680 h1         1 VNN       0.057450
     21 H9          27.9450    17.0430    43.3440 h1         1 VNN       0.057450
     22 H10         29.1740    15.8050    41.5920 h4         1 VNN       0.154000
     23 H11         27.8550    17.8480    37.9910 ha         1 VNN       0.149000
     24 H12         28.9250    14.7660    36.3530 hc         1 VNN       0.048367
     25 H13         27.2420    14.4710    36.7830 hc         1 VNN       0.048367
     26 H14         27.7230    16.0450    36.1350 hc         1 VNN       0.048367
     27 H15         26.2280    20.7990    45.7310 h1         1 VNN       0.033033
     28 H16         25.5670    20.9050    44.0810 h1         1 VNN       0.033033
     29 H17         24.9020    19.7380    45.2380 h1         1 VNN       0.033033
     30 C5          28.5040    18.5090    40.6630 c          1 VNN       0.627700
     31 C           28.0330    15.2250    36.7840 c3         1 VNN      -0.019800
@<TRIPOS>BOND
     1     1     2 1   
     2     1     3 1   
     3     1    13 1   
     4     2     6 1   
     5     2    14 1   
     6     2    15 1   
     7     3     4 1   
     8     3    16 1   
     9     3    17 1   
    10     4    12 1   
    11     4    18 1   
    12     4    19 1   
    13     5     9 2   
    14     5    11 1   
    15     5    31 1   
    16     6    12 1   
    17     6    20 1   
    18     6    21 1   
    19     7     8 2   
    20     7    11 1   
    21     7    22 1   
    22     8     9 1   
    23     8    30 1   
    24     9    23 1   
    25    10    30 2   
    26    12    30 1   
    27    13    27 1   
    28    13    28 1   
    29    13    29 1   
    30    24    31 1   
    31    25    31 1   
    32    26    31 1   
@<TRIPOS>SUBSTRUCTURE
     1 VNN         1 TEMP              0 ****  ****    0 ROOT
