@<TRIPOS>MOLECULE
VNN
   31    32     1     0     0
SMALL
No Charge or Current Charge


@<TRIPOS>ATOM
      1 N1          26.9010    19.2580    44.6380 n3         1 VNN      -0.724600
      2 C7          26.2050    18.3660    43.6610 c6         1 VNN       0.148800
      3 C8          28.1480    19.8720    44.0820 c6         1 VNN       0.148800
      4 C9          28.1580    19.9780    42.5290 c6         1 VNN       0.087500
      5 C1          28.3840    15.6400    38.0300 cc         1 VNN      -0.198300
      6 C6          27.1760    17.6700    42.6640 c6         1 VNN       0.087500
      7 C4          28.3790    15.9410    40.5190 cc         1 VNN      -0.213000
      8 C3          28.2760    17.1460    39.8450 cd         1 VNN      -0.157600
      9 C2          28.3060    16.9490    38.4290 cd         1 VNN      -0.095000
     10 O           28.4200    19.5190    39.7900 o          1 VNN      -0.608100
     11 S           28.4370    14.5680    39.4190 ss         1 VNN       0.190000
     12 N           27.9650    18.6550    41.8580 n          1 VNN      -0.412800
     13 C10         25.9850    20.2290    45.2780 c3         1 VNN       0.152100
     14 H2          25.4840    18.9470    43.0660 h1         1 VNN       0.051950
     15 H3          25.6250    17.5990    44.1950 h1         1 VNN       0.051950
     16 H4          29.0100    19.2540    44.3730 h1         1 VNN       0.051950
     17 H5          28.3270    20.8680    44.5140 h1         1 VNN       0.051950
     18 H6          29.1170    20.4100    42.2120 h1         1 VNN       0.057450
     19 H7          27.3630    20.6660    42.2060 h1         1 VNN       0.057450
     20 H8          26.5720    17.0370    41.9990 h1         1 VNN       0.057450
     21 H9          27.8630    17.0250    43.2290 h1         1 VNN       0.057450
     22 H10         28.4630    15.7340    41.5760 h4         1 VNN       0.154000
     23 H11         28.2650    17.7730    37.7220 ha         1 VNN       0.149000
     24 H12         29.3620    14.5550    36.4460 hc         1 VNN       0.048367
     25 H13         27.5940    14.4110    36.4470 hc         1 VNN       0.048367
     26 H14         28.3620    15.9080    35.8880 hc         1 VNN       0.048367
     27 H15         26.5020    20.7890    46.0680 h1         1 VNN       0.033033
     28 H16         25.6000    20.9480    44.5410 h1         1 VNN       0.033033
     29 H17         25.1300    19.7130    45.7340 h1         1 VNN       0.033033
     30 C5          28.2280    18.5170    40.4700 c          1 VNN       0.627700
     31 C           28.4280    15.1000    36.6260 c3         1 VNN      -0.019800
@<TRIPOS>BOND
     1     1     2 1   
     2     1     3 1   
     3     1    13 1   
     4     2     6 1   
     5     2    14 1   
     6     2    15 1   
     7     3     4 1   
     8     3    16 1   
     9     3    17 1   
    10     4    12 1   
    11     4    18 1   
    12     4    19 1   
    13     5     9 2   
    14     5    11 1   
    15     5    31 1   
    16     6    12 1   
    17     6    20 1   
    18     6    21 1   
    19     7     8 2   
    20     7    11 1   
    21     7    22 1   
    22     8     9 1   
    23     8    30 1   
    24     9    23 1   
    25    10    30 2   
    26    12    30 1   
    27    13    27 1   
    28    13    28 1   
    29    13    29 1   
    30    24    31 1   
    31    25    31 1   
    32    26    31 1   
@<TRIPOS>SUBSTRUCTURE
     1 VNN         1 TEMP              0 ****  ****    0 ROOT
