@<TRIPOS>MOLECULE
VNO
   32    31     1     0     0
SMALL
No Charge or Current Charge


@<TRIPOS>ATOM
      1 C10         -1.6950    -4.8170    12.2590 c3         1 VNO      -0.261400
      2 C01          2.0950    -3.3050     6.9360 c3         1 VNO       0.072800
      3 C03          2.0850    -5.6700     7.7590 c3         1 VNO       0.072800
      4 C04          0.4010    -4.0720     8.6990 c          1 VNO       0.657100
      5 C07          0.8230    -1.5540     8.9430 c3         1 VNO       0.098300
      6 C08         -1.3180    -2.5730     9.7870 c3         1 VNO       0.146000
      7 C09         -1.3380    -5.9840    13.2090 c3         1 VNO      -0.065100
      8 C14         -1.2120    -2.1560    11.2750 c3         1 VNO      -0.323400
      9 N02          1.5580    -4.2930     7.8990 n          1 VNO      -0.390800
     10 N06         -0.0220    -2.7650     9.0850 n          1 VNO      -0.419800
     11 O05         -0.2480    -5.0440     9.0630 o          1 VNO      -0.643100
     12 O12         -0.6950    -2.8740    13.7620 o          1 VNO      -0.513500
     13 O13          0.7620    -3.8260    11.9280 o          1 VNO      -0.513500
     14 S11         -0.5640    -3.4090    12.4010 s6         1 VNO       1.036000
     15 H1          -1.6580    -5.1530    11.2180 h1         1 VNO       0.092200
     16 H2          -2.6980    -4.4350    12.4800 h1         1 VNO       0.092200
     17 H3           1.2740    -2.7300     6.4890 h1         1 VNO       0.040533
     18 H4           2.8040    -2.6330     7.4350 h1         1 VNO       0.040533
     19 H5           2.6230    -3.8180     6.1220 h1         1 VNO       0.040533
     20 H6           2.1000    -6.1680     8.7370 h1         1 VNO       0.040533
     21 H7           1.4480    -6.2420     7.0720 h1         1 VNO       0.040533
     22 H8           3.1100    -5.6490     7.3650 h1         1 VNO       0.040533
     23 H9           0.4560    -0.7450     9.5850 h1         1 VNO       0.041700
     24 H10          1.8550    -1.7800     9.2370 h1         1 VNO       0.041700
     25 H11          0.7940    -1.1900     7.9090 h1         1 VNO       0.041700
     26 H12         -1.3710    -5.6630    14.2580 hc         1 VNO       0.056367
     27 H13         -1.8580    -1.7780     9.2560 h1         1 VNO       0.060200
     28 H14         -0.3320    -6.3690    12.9970 hc         1 VNO       0.056367
     29 H15         -1.9490    -3.4670     9.6970 h1         1 VNO       0.060200
     30 H16         -2.0490    -6.8100    13.0840 hc         1 VNO       0.056367
     31 H17         -0.5730    -1.2760    11.3980 h1         1 VNO       0.101700
     32 H18         -2.2100    -1.9130    11.6560 h1         1 VNO       0.101700
@<TRIPOS>BOND
     1     1     7 1   
     2     1    14 1   
     3     1    15 1   
     4     1    16 1   
     5     2     9 1   
     6     2    17 1   
     7     2    18 1   
     8     2    19 1   
     9     3     9 1   
    10     3    20 1   
    11     3    21 1   
    12     3    22 1   
    13     4     9 1   
    14     4    10 1   
    15     4    11 2   
    16     5    10 1   
    17     5    23 1   
    18     5    24 1   
    19     5    25 1   
    20     6     8 1   
    21     6    10 1   
    22     6    27 1   
    23     6    29 1   
    24     7    26 1   
    25     7    28 1   
    26     7    30 1   
    27     8    14 1   
    28     8    31 1   
    29     8    32 1   
    30    12    14 2   
    31    13    14 2   
@<TRIPOS>SUBSTRUCTURE
     1 VNO         1 TEMP              0 ****  ****    0 ROOT
