@<TRIPOS>MOLECULE
VNO
   32    31     1     0     0
SMALL
abcg2


@<TRIPOS>ATOM
      1 C10         -1.8720    -4.6050    12.5210 c3         1 VNO      -0.261400
      2 C01          1.9040    -3.4780     6.9770 c3         1 VNO       0.072800
      3 C03          2.2450    -5.6230     8.0200 c3         1 VNO       0.072800
      4 C04          0.5180    -4.1970     8.8730 c          1 VNO       0.657100
      5 C07          1.0070    -1.8100     9.3390 c3         1 VNO       0.098300
      6 C08         -1.2550    -2.7350     9.6300 c3         1 VNO       0.146000
      7 C09         -0.9910    -5.8340    12.4220 c3         1 VNO      -0.065100
      8 C14         -1.5070    -2.1560    11.0210 c3         1 VNO      -0.323400
      9 N02          1.7020    -4.2830     8.1710 n          1 VNO      -0.390800
     10 N06          0.1270    -2.9520     9.2700 n          1 VNO      -0.419800
     11 O05         -0.1330    -5.1960     9.1630 o          1 VNO      -0.643100
     12 O12         -1.2910    -2.2610    13.6240 o          1 VNO      -0.513500
     13 O13          0.5160    -3.3400    12.2650 o          1 VNO      -0.513500
     14 S11         -0.9110    -3.0560    12.4520 s6         1 VNO       1.036000
     15 H1          -2.6420    -4.5670    11.7430 h1         1 VNO       0.092200
     16 H2          -2.3900    -4.5630    13.4820 h1         1 VNO       0.092200
     17 H3           1.4400    -2.5000     7.0430 h1         1 VNO       0.040533
     18 H4           2.9720    -3.3320     6.8090 h1         1 VNO       0.040533
     19 H5           1.4910    -3.9830     6.0970 h1         1 VNO       0.040533
     20 H6           2.1930    -6.1650     8.9610 h1         1 VNO       0.040533
     21 H7           1.7230    -6.2020     7.2510 h1         1 VNO       0.040533
     22 H8           3.2930    -5.5350     7.7350 h1         1 VNO       0.040533
     23 H9           0.9030    -1.3190    10.3080 h1         1 VNO       0.041700
     24 H10          2.0440    -2.1150     9.2540 h1         1 VNO       0.041700
     25 H11          0.7910    -1.0640     8.5710 h1         1 VNO       0.041700
     26 H12         -0.3770    -5.9020    13.3220 hc         1 VNO       0.056367
     27 H13         -1.6810    -2.0040     8.9380 h1         1 VNO       0.060200
     28 H14         -0.3450    -5.7960    11.5510 hc         1 VNO       0.056367
     29 H15         -1.7960    -3.6670     9.5080 h1         1 VNO       0.060200
     30 H16         -1.6250    -6.7190    12.3790 hc         1 VNO       0.056367
     31 H17         -1.0720    -1.1610    11.1420 h1         1 VNO       0.101700
     32 H18         -2.5840    -2.0410    11.1570 h1         1 VNO       0.101700
@<TRIPOS>BOND
     1     1     7 1   
     2     1    14 1   
     3     1    15 1   
     4     1    16 1   
     5     2     9 1   
     6     2    17 1   
     7     2    18 1   
     8     2    19 1   
     9     3     9 1   
    10     3    20 1   
    11     3    21 1   
    12     3    22 1   
    13     4     9 1   
    14     4    10 1   
    15     4    11 2   
    16     5    10 1   
    17     5    23 1   
    18     5    24 1   
    19     5    25 1   
    20     6     8 1   
    21     6    10 1   
    22     6    27 1   
    23     6    29 1   
    24     7    26 1   
    25     7    28 1   
    26     7    30 1   
    27     8    14 1   
    28     8    31 1   
    29     8    32 1   
    30    12    14 2   
    31    13    14 2   
@<TRIPOS>SUBSTRUCTURE
     1 VNO         1 TEMP              0 ****  ****    0 ROOT
