@<TRIPOS>MOLECULE
VNQ
   27    27     1     0     0
SMALL
abcg2


@<TRIPOS>ATOM
      1 CAA         26.8950   -18.2710    -4.4560 c5         1 VNQ       0.162000
      2 CAB         27.8840   -19.3050    -3.9190 c5         1 VNQ       0.135300
      3 CAC         28.9630   -18.4090    -3.3250 c5         1 VNQ       0.135300
      4 CAD         28.1170   -17.3270    -2.6470 c5         1 VNQ       0.162000
      5 CAF         25.4800   -18.8080    -4.5670 c3         1 VNQ       0.166100
      6 CAI         28.9230   -16.0990    -2.2570 c3         1 VNQ       0.166100
      7 NAE         27.0140   -17.0920    -3.5820 n3         1 VNQ      -0.719600
      8 OAG         27.2800   -20.0960    -2.9210 oh         1 VNQ      -0.661500
      9 OAH         29.8110   -19.1450    -2.4860 oh         1 VNQ      -0.661500
     10 OAJ         24.6920   -17.8890    -5.2950 oh         1 VNQ      -0.676500
     11 OAK         29.9000   -16.5460    -1.3330 oh         1 VNQ      -0.676500
     12 H1          27.2340   -18.0170    -5.4720 h1         1 VNQ       0.068200
     13 H2          28.2670   -19.9330    -4.7340 h1         1 VNQ       0.046200
     14 H3          29.5220   -17.9450    -4.1540 h1         1 VNQ       0.046200
     15 H4          27.7130   -17.7470    -1.7150 h1         1 VNQ       0.068200
     16 H5          25.0750   -18.9710    -3.5630 h1         1 VNQ       0.034950
     17 H6          25.5110   -19.7840    -5.0700 h1         1 VNQ       0.034950
     18 H7          29.3930   -15.6510    -3.1400 h1         1 VNQ       0.034950
     19 H8          28.2770   -15.3380    -1.8030 h1         1 VNQ       0.034950
     20 H9          27.0210   -14.9910    -3.6420 h1         1 VNQ       0.034367
     21 H10         27.8640   -15.7300    -5.0150 h1         1 VNQ       0.034367
     22 H11         26.1060   -15.7760    -4.9060 h1         1 VNQ       0.034367
     23 H13         27.9870   -20.4510    -2.3690 ho         1 VNQ       0.470500
     24 H14         30.2360   -18.5150    -1.8890 ho         1 VNQ       0.470500
     25 H15         23.7800   -18.1910    -5.2680 ho         1 VNQ       0.448000
     26 H16         30.5510   -15.8500    -1.2060 ho         1 VNQ       0.448000
     27 CAL         27.0200   -15.8450    -4.3190 c3         1 VNQ       0.159100
@<TRIPOS>BOND
     1     1     2 1   
     2     1     5 1   
     3     1     7 1   
     4     1    12 1   
     5     2     3 1   
     6     2     8 1   
     7     2    13 1   
     8     3     4 1   
     9     3     9 1   
    10     3    14 1   
    11     4     6 1   
    12     4     7 1   
    13     4    15 1   
    14     5    10 1   
    15     5    16 1   
    16     5    17 1   
    17     6    11 1   
    18     6    18 1   
    19     6    19 1   
    20     7    27 1   
    21     8    23 1   
    22     9    24 1   
    23    10    25 1   
    24    11    26 1   
    25    20    27 1   
    26    21    27 1   
    27    22    27 1   
@<TRIPOS>SUBSTRUCTURE
     1 VNQ         1 TEMP              0 ****  ****    0 ROOT
