@<TRIPOS>MOLECULE
VNQ
   27    27     1     0     0
SMALL
No Charge or Current Charge


@<TRIPOS>ATOM
      1 CAA         27.0990   -18.1630    -4.3610 c5         1 VNQ       0.162000
      2 CAB         27.8450   -19.4000    -3.7540 c5         1 VNQ       0.135300
      3 CAC         28.9020   -18.7090    -2.8190 c5         1 VNQ       0.135300
      4 CAD         28.3130   -17.2670    -2.5330 c5         1 VNQ       0.162000
      5 CAF         25.7980   -18.5530    -5.1350 c3         1 VNQ       0.166100
      6 CAI         29.2420   -16.1380    -3.0920 c3         1 VNQ       0.166100
      7 NAE         26.9370   -17.3340    -3.1260 n3         1 VNQ      -0.719600
      8 OAG         27.0000   -20.2610    -2.9760 oh         1 VNQ      -0.661500
      9 OAH         29.1320   -19.4840    -1.6240 oh         1 VNQ      -0.661500
     10 OAJ         25.3110   -17.4690    -5.9510 oh         1 VNQ      -0.676500
     11 OAK         30.5340   -16.1690    -2.4610 oh         1 VNQ      -0.676500
     12 H1          27.7580   -17.6620    -5.0850 h1         1 VNQ       0.068200
     13 H2          28.3420   -19.9800    -4.5440 h1         1 VNQ       0.046200
     14 H3          29.8470   -18.6170    -3.3730 h1         1 VNQ       0.046200
     15 H4          28.2340   -17.0960    -1.4500 h1         1 VNQ       0.068200
     16 H5          25.0320   -18.8690    -4.4130 h1         1 VNQ       0.034950
     17 H6          26.0250   -19.4170    -5.7740 h1         1 VNQ       0.034950
     18 H7          29.3470   -16.2590    -4.1790 h1         1 VNQ       0.034950
     19 H8          28.7660   -15.1650    -2.9120 h1         1 VNQ       0.034950
     20 H9          26.2010   -15.5190    -2.2860 h1         1 VNQ       0.034367
     21 H10         26.6470   -15.4070    -4.0070 h1         1 VNQ       0.034367
     22 H11         25.1510   -16.2370    -3.5210 h1         1 VNQ       0.034367
     23 H13         27.4520   -20.2470    -2.0970 ho         1 VNQ       0.470500
     24 H14         29.8770   -19.0520    -1.1460 ho         1 VNQ       0.470500
     25 H15         24.4760   -17.7790    -6.3670 ho         1 VNQ       0.448000
     26 H16         31.0500   -15.4140    -2.8250 ho         1 VNQ       0.448000
     27 CAL         26.1980   -16.0560    -3.2440 c3         1 VNQ       0.159100
@<TRIPOS>BOND
     1     1     2 1   
     2     1     5 1   
     3     1     7 1   
     4     1    12 1   
     5     2     3 1   
     6     2     8 1   
     7     2    13 1   
     8     3     4 1   
     9     3     9 1   
    10     3    14 1   
    11     4     6 1   
    12     4     7 1   
    13     4    15 1   
    14     5    10 1   
    15     5    16 1   
    16     5    17 1   
    17     6    11 1   
    18     6    18 1   
    19     6    19 1   
    20     7    27 1   
    21     8    23 1   
    22     9    24 1   
    23    10    25 1   
    24    11    26 1   
    25    20    27 1   
    26    21    27 1   
    27    22    27 1   
@<TRIPOS>SUBSTRUCTURE
     1 VNQ         1 TEMP              0 ****  ****    0 ROOT
