@<TRIPOS>MOLECULE
VNS
   69    74     1     0     0
SMALL
No Charge or Current Charge


@<TRIPOS>ATOM
      1 O01         19.8290   -29.1300   -17.2800 o          1 VNS      -0.560100
      2 C02         20.9210   -29.6460   -17.4790 c          1 VNS       0.588100
      3 C04         22.2540   -28.1120   -16.0640 cc         1 VNS       0.529300
      4 C06         23.4920   -26.7720   -14.7990 cd         1 VNS       0.302900
      5 C07         22.2650   -26.1880   -14.5970 cc         1 VNS      -0.309000
      6 C09         21.1120   -30.9080   -18.3750 c3         1 VNS       0.097000
      7 C11         19.5040   -30.5850   -20.2830 c          1 VNS       0.582600
      8 C12         18.2340   -31.1830   -20.7290 ca         1 VNS      -0.161600
      9 C13         17.4400   -30.8490   -21.8340 ca         1 VNS      -0.028000
     10 C14         16.2410   -31.5760   -22.0690 cp         1 VNS      -0.038000
     11 C16         15.2070   -29.9220   -23.6950 ca         1 VNS      -0.096000
     12 C18         13.6880   -30.6420   -25.4680 ca         1 VNS      -0.064300
     13 C19         12.7850   -30.3230   -26.6690 c6         1 VNS      -0.016400
     14 C20         11.5990   -29.3980   -26.2810 c6         1 VNS      -0.106900
     15 C21         10.7240   -29.0640   -27.5180 c6         1 VNS       0.163800
     16 C24         12.6370   -29.3570   -29.0350 c6         1 VNS       0.163800
     17 C25         13.5780   -29.7010   -27.8500 c6         1 VNS      -0.106900
     18 C15         15.3620   -31.2550   -23.2390 cp         1 VNS      -0.044000
     19 C17         14.3830   -29.6200   -24.7920 ca         1 VNS      -0.107000
     20 C26         13.8330   -31.9710   -25.0270 ca         1 VNS      -0.107000
     21 C27         14.6570   -32.2720   -23.9290 ca         1 VNS      -0.096000
     22 C28         15.9010   -32.6210   -21.1590 ca         1 VNS      -0.075000
     23 C29         16.7190   -32.9330   -20.0540 ca         1 VNS      -0.099000
     24 C30         17.8940   -32.1960   -19.8530 ca         1 VNS      -0.076300
     25 C31         18.9200   -32.3560   -18.7380 c5         1 VNS       0.147300
     26 C33         21.6870   -32.1070   -17.5980 ca         1 VNS      -0.174300
     27 C34         21.3410   -32.3080   -16.2390 ca         1 VNS      -0.105000
     28 C35         21.8770   -33.3880   -15.5190 ca         1 VNS       0.138000
     29 C37         22.7560   -34.2870   -16.1360 ca         1 VNS      -0.103000
     30 C38         23.0890   -34.1120   -17.4900 ca         1 VNS      -0.121000
     31 C39         22.5510   -33.0400   -18.2220 ca         1 VNS       0.149100
     32 F36         21.5410   -33.5600   -14.2220 f          1 VNS      -0.172000
     33 N03         22.0800   -29.1750   -16.9080 ns         1 VNS      -0.462400
     34 N05         23.4820   -27.8760   -15.6420 nd         1 VNS      -0.702000
     35 N10         19.8970   -31.2920   -19.1380 n          1 VNS      -0.420800
     36 N22         11.5210   -28.4580   -28.6230 n3         1 VNS      -0.714600
     37 O32         20.1080   -29.6600   -20.8050 o          1 VNS      -0.530000
     38 O40         22.8660   -32.9360   -19.5450 oh         1 VNS      -0.537100
     39 S08         21.0160   -27.0180   -15.4770 ss         1 VNS       0.053600
     40 H1          24.4260   -26.4410   -14.3620 h4         1 VNS       0.041100
     41 H2          22.0190   -25.3270   -13.9900 h4         1 VNS       0.161000
     42 H3          21.8690   -30.5880   -19.1030 h1         1 VNS       0.096700
     43 H4          17.7510   -30.0520   -22.5050 ha         1 VNS       0.138000
     44 H5          15.7190   -29.1100   -23.1860 ha         1 VNS       0.115500
     45 H6          12.3520   -31.2670   -27.0330 hc         1 VNS       0.051700
     46 H7          11.9670   -28.4710   -25.8240 hc         1 VNS       0.047450
     47 H8          10.9800   -29.8910   -25.5190 hc         1 VNS       0.047450
     48 H9           9.9080   -28.3900   -27.2150 h1         1 VNS       0.051450
     49 H10         10.2480   -29.9920   -27.8700 h1         1 VNS       0.051450
     50 H11         11.0720   -26.4300   -28.1430 h1         1 VNS       0.029367
     51 H12         12.6300   -26.9980   -27.5060 h1         1 VNS       0.029367
     52 H13         12.4520   -26.6410   -29.2380 h1         1 VNS       0.029367
     53 H14         12.2270   -30.2950   -29.4400 h1         1 VNS       0.051450
     54 H15         13.2240   -28.8980   -29.8450 h1         1 VNS       0.051450
     55 H16         14.3490   -30.4060   -28.1900 hc         1 VNS       0.047450
     56 H17         14.1110   -28.7990   -27.5250 hc         1 VNS       0.047450
     57 H18         14.2840   -28.5850   -25.1130 ha         1 VNS       0.114000
     58 H19         13.3090   -32.7770   -25.5350 ha         1 VNS       0.114000
     59 H20         14.7600   -33.3090   -23.6200 ha         1 VNS       0.115500
     60 H21         14.9830   -33.1860   -21.3040 ha         1 VNS       0.120000
     61 H22         16.4410   -33.7310   -19.3680 ha         1 VNS       0.123000
     62 H23         18.4810   -32.1590   -17.7500 h1         1 VNS       0.072200
     63 H24         19.3730   -33.3560   -18.7430 h1         1 VNS       0.072200
     64 H25         20.6560   -31.6350   -15.7300 ha         1 VNS       0.141000
     65 H26         23.1680   -35.1200   -15.5720 ha         1 VNS       0.139000
     66 H27         23.7570   -34.8180   -17.9790 ha         1 VNS       0.139000
     67 H28         22.9150   -29.6970   -17.1280 hn         1 VNS       0.347500
     68 H30         22.1630   -32.4180   -19.9910 ho         1 VNS       0.481000
     69 C23         11.9440   -27.0610   -28.3600 c3         1 VNS       0.154100
@<TRIPOS>BOND
     1     1     2 2   
     2     2     6 1   
     3     2    33 1   
     4     3    33 1   
     5     3    34 2   
     6     3    39 1   
     7     4     5 2   
     8     4    34 1   
     9     4    40 1   
    10     5    39 1   
    11     5    41 1   
    12     6    26 1   
    13     6    35 1   
    14     6    42 1   
    15     7     8 1   
    16     7    35 1   
    17     7    37 2   
    18     8     9 ar  
    19     8    24 ar  
    20     9    10 ar  
    21     9    43 1   
    22    10    18 1   
    23    10    22 ar  
    24    11    18 ar  
    25    11    19 ar  
    26    11    44 1   
    27    12    13 1   
    28    12    19 ar  
    29    12    20 ar  
    30    13    14 1   
    31    13    17 1   
    32    13    45 1   
    33    14    15 1   
    34    14    46 1   
    35    14    47 1   
    36    15    36 1   
    37    15    48 1   
    38    15    49 1   
    39    16    17 1   
    40    16    36 1   
    41    16    53 1   
    42    16    54 1   
    43    17    55 1   
    44    17    56 1   
    45    18    21 ar  
    46    19    57 1   
    47    20    21 ar  
    48    20    58 1   
    49    21    59 1   
    50    22    23 ar  
    51    22    60 1   
    52    23    24 ar  
    53    23    61 1   
    54    24    25 1   
    55    25    35 1   
    56    25    62 1   
    57    25    63 1   
    58    26    27 ar  
    59    26    31 ar  
    60    27    28 ar  
    61    27    64 1   
    62    28    29 ar  
    63    28    32 1   
    64    29    30 ar  
    65    29    65 1   
    66    30    31 ar  
    67    30    66 1   
    68    31    38 1   
    69    33    67 1   
    70    36    69 1   
    71    38    68 1   
    72    50    69 1   
    73    51    69 1   
    74    52    69 1   
@<TRIPOS>SUBSTRUCTURE
     1 VNS         1 TEMP              0 ****  ****    0 ROOT
