@<TRIPOS>MOLECULE
VNS
   69    74     1     0     0
SMALL
bcc


@<TRIPOS>ATOM
      1 O01         19.8080   -29.4010   -17.2460 o          1 VNS      -0.560100
      2 C02         20.9170   -29.7860   -17.5490 c          1 VNS       0.655100
      3 C04         22.0690   -28.1650   -16.1740 cc         1 VNS       0.529300
      4 C06         22.9450   -26.6520   -14.8640 cd         1 VNS       0.368200
      5 C07         21.6430   -26.3850   -14.6130 cc         1 VNS      -0.247400
      6 C09         21.1610   -30.9600   -18.4970 c3         1 VNS       0.097000
      7 C11         19.5390   -30.5480   -20.2790 c          1 VNS       0.725100
      8 C12         18.2210   -31.0910   -20.6500 ca         1 VNS      -0.161600
      9 C13         17.4130   -30.7550   -21.7210 ca         1 VNS      -0.046000
     10 C14         16.2060   -31.4330   -21.8850 cp         1 VNS      -0.038000
     11 C16         15.1790   -29.8310   -23.5090 ca         1 VNS      -0.114000
     12 C18         13.6730   -30.5730   -25.2540 ca         1 VNS      -0.064300
     13 C19         12.8150   -30.2870   -26.4580 c6         1 VNS      -0.016400
     14 C20         11.7420   -29.2250   -26.1960 c6         1 VNS      -0.106900
     15 C21         10.9320   -28.9660   -27.4660 c6         1 VNS       0.163800
     16 C24         12.7630   -29.5820   -28.8720 c6         1 VNS       0.163800
     17 C25         13.6600   -29.8750   -27.6700 c6         1 VNS      -0.106900
     18 C15         15.3260   -31.1350   -23.0320 cp         1 VNS      -0.044000
     19 C17         14.3700   -29.5580   -24.6000 ca         1 VNS      -0.125000
     20 C26         13.8190   -31.8710   -24.7740 ca         1 VNS      -0.125000
     21 C27         14.6300   -32.1510   -23.6850 ca         1 VNS      -0.114000
     22 C28         15.8530   -32.4160   -20.9480 ca         1 VNS      -0.093000
     23 C29         16.6710   -32.7460   -19.8770 ca         1 VNS      -0.117000
     24 C30         17.8710   -32.0720   -19.7380 ca         1 VNS      -0.076300
     25 C31         18.9580   -32.2220   -18.7210 c5         1 VNS       0.147300
     26 C33         21.7340   -32.1680   -17.7900 ca         1 VNS      -0.174300
     27 C34         21.5650   -32.3520   -16.4200 ca         1 VNS      -0.123000
     28 C35         22.1200   -33.4520   -15.8040 ca         1 VNS       0.102900
     29 C37         22.8440   -34.3920   -16.5100 ca         1 VNS      -0.121000
     30 C38         22.9880   -34.2300   -17.8760 ca         1 VNS      -0.139000
     31 C39         22.4290   -33.1340   -18.5270 ca         1 VNS       0.149100
     32 F36         21.9520   -33.6110   -14.4810 f          1 VNS      -0.136900
     33 N03         22.0460   -29.2040   -17.0760 ns         1 VNS      -0.529400
     34 N05         23.1840   -27.6650   -15.7510 nd         1 VNS      -0.702000
     35 N10         19.9590   -31.2900   -19.2110 n          1 VNS      -0.487800
     36 N22         11.7350   -28.5870   -28.6160 n3         1 VNS      -0.714600
     37 O32         20.1580   -29.6370   -20.7940 o          1 VNS      -0.605500
     38 O40         22.6190   -33.0520   -19.8610 oh         1 VNS      -0.498100
     39 S08         20.6370   -27.4420   -15.5280 ss         1 VNS      -0.091300
     40 H1          23.7810   -26.1310   -14.4210 h4         1 VNS       0.041100
     41 H2          21.2240   -25.6390   -13.9570 h4         1 VNS       0.179000
     42 H3          21.8930   -30.6060   -19.2350 h1         1 VNS       0.096700
     43 H4          17.7310   -30.0020   -22.4310 ha         1 VNS       0.156000
     44 H5          15.6890   -29.0140   -23.0140 ha         1 VNS       0.133500
     45 H6          12.2960   -31.2160   -26.7250 hc         1 VNS       0.051700
     46 H7          12.2070   -28.2950   -25.8560 hc         1 VNS       0.047450
     47 H8          11.0740   -29.5520   -25.3950 hc         1 VNS       0.047450
     48 H9          10.1830   -28.1910   -27.2870 h1         1 VNS       0.051450
     49 H10         10.3820   -29.8790   -27.7250 h1         1 VNS       0.051450
     50 H11         11.4300   -26.5370   -28.3920 h1         1 VNS       0.029367
     51 H12         12.9770   -27.0610   -27.7230 h1         1 VNS       0.029367
     52 H13         12.7500   -26.9780   -29.4700 h1         1 VNS       0.029367
     53 H14         12.2660   -30.5110   -29.1740 h1         1 VNS       0.051450
     54 H15         13.3630   -29.2580   -29.7260 h1         1 VNS       0.051450
     55 H16         14.3640   -30.6720   -27.9230 hc         1 VNS       0.047450
     56 H17         14.2630   -28.9970   -27.4180 hc         1 VNS       0.047450
     57 H18         14.2820   -28.5320   -24.9400 ha         1 VNS       0.132000
     58 H19         13.2960   -32.6830   -25.2670 ha         1 VNS       0.132000
     59 H20         14.7370   -33.1780   -23.3590 ha         1 VNS       0.133500
     60 H21         14.9050   -32.9290   -21.0530 ha         1 VNS       0.138000
     61 H22         16.3670   -33.5100   -19.1740 ha         1 VNS       0.141000
     62 H23         18.6180   -31.9560   -17.7170 h1         1 VNS       0.072200
     63 H24         19.3430   -33.2430   -18.6820 h1         1 VNS       0.072200
     64 H25         21.0020   -31.6460   -15.8220 ha         1 VNS       0.159000
     65 H26         23.2790   -35.2460   -16.0080 ha         1 VNS       0.157000
     66 H27         23.5350   -34.9640   -18.4530 ha         1 VNS       0.157000
     67 H28         22.9530   -29.5440   -17.3680 hn         1 VNS       0.347500
     68 H30         21.9310   -32.5370   -20.2940 ho         1 VNS       0.442000
     69 C23         12.2550   -27.2380   -28.5320 c3         1 VNS       0.154100
@<TRIPOS>BOND
     1     1     2 2   
     2     2     6 1   
     3     2    33 1   
     4     3    33 1   
     5     3    34 2   
     6     3    39 1   
     7     4     5 2   
     8     4    34 1   
     9     4    40 1   
    10     5    39 1   
    11     5    41 1   
    12     6    26 1   
    13     6    35 1   
    14     6    42 1   
    15     7     8 1   
    16     7    35 1   
    17     7    37 2   
    18     8     9 ar  
    19     8    24 ar  
    20     9    10 ar  
    21     9    43 1   
    22    10    18 1   
    23    10    22 ar  
    24    11    18 ar  
    25    11    19 ar  
    26    11    44 1   
    27    12    13 1   
    28    12    19 ar  
    29    12    20 ar  
    30    13    14 1   
    31    13    17 1   
    32    13    45 1   
    33    14    15 1   
    34    14    46 1   
    35    14    47 1   
    36    15    36 1   
    37    15    48 1   
    38    15    49 1   
    39    16    17 1   
    40    16    36 1   
    41    16    53 1   
    42    16    54 1   
    43    17    55 1   
    44    17    56 1   
    45    18    21 ar  
    46    19    57 1   
    47    20    21 ar  
    48    20    58 1   
    49    21    59 1   
    50    22    23 ar  
    51    22    60 1   
    52    23    24 ar  
    53    23    61 1   
    54    24    25 1   
    55    25    35 1   
    56    25    62 1   
    57    25    63 1   
    58    26    27 ar  
    59    26    31 ar  
    60    27    28 ar  
    61    27    64 1   
    62    28    29 ar  
    63    28    32 1   
    64    29    30 ar  
    65    29    65 1   
    66    30    31 ar  
    67    30    66 1   
    68    31    38 1   
    69    33    67 1   
    70    36    69 1   
    71    38    68 1   
    72    50    69 1   
    73    51    69 1   
    74    52    69 1   
@<TRIPOS>SUBSTRUCTURE
     1 VNS         1 TEMP              0 ****  ****    0 ROOT
