@<TRIPOS>MOLECULE
VNT
   53    57     1     0     0
SMALL
No Charge or Current Charge


@<TRIPOS>ATOM
      1 CBA          4.8200     1.5090     0.6080 ca         1 VNT       0.137000
      2 CAQ          5.5450     2.6480     0.2200 ca         1 VNT      -0.095000
      3 CAZ          5.8250     2.8810    -1.1330 ca         1 VNT       0.131000
      4 CAI          5.3740     1.9790    -2.1070 ca         1 VNT      -0.101000
      5 CAN          4.6480     0.8370    -1.7270 ca         1 VNT      -0.087000
      6 CBE          4.3710     0.5780    -0.3640 ca         1 VNT      -0.100300
      7 CBH          3.5690    -0.6670     0.0360 c3         1 VNT       0.145000
      8 CAR          4.0230    -1.9470    -0.7120 c3         1 VNT       0.078600
      9 NBI          3.4700    -3.1930    -0.1520 na         1 VNT      -0.061700
     10 NAT          4.1450    -3.9110     0.7830 nc         1 VNT      -0.529800
     11 CAO          3.3260    -4.9330     1.0050 cd         1 VNT       0.520900
     12 NAS          2.1660    -4.9010     0.2450 nd         1 VNT      -0.693000
     13 CAP          2.2760    -3.7950    -0.4700 cc         1 VNT       0.401400
     14 NAW          2.1380    -0.3980    -0.1610 ns         1 VNT      -0.508900
     15 CAY          1.1350    -0.7610     0.7140 c          1 VNT       0.615700
     16 OAA          1.3840    -1.3570     1.7510 o          1 VNT      -0.571100
     17 CBB         -0.2800    -0.3860     0.3190 ca         1 VNT      -0.133600
     18 CAJ         -1.3520    -0.7280     1.1730 ca         1 VNT      -0.080000
     19 CAL         -2.6770    -0.3990     0.8400 ca         1 VNT      -0.078000
     20 CAK         -0.5760     0.2970    -0.8850 ca         1 VNT      -0.080000
     21 CAM         -1.9020     0.6250    -1.2170 ca         1 VNT      -0.078000
     22 CBD         -2.9690     0.2820    -0.3610 ca         1 VNT      -0.116500
     23 CBG         -4.3520     0.6290    -0.7150 cc         1 VNT       0.470500
     24 OAX         -5.3620     0.2890     0.1260 os         1 VNT      -0.275000
     25 NAV         -4.7720     1.2620    -1.8000 nd         1 VNT      -0.351000
     26 NAU         -6.1360     1.3530    -1.6830 nd         1 VNT      -0.358000
     27 CBF         -6.4450     0.7680    -0.5350 cc         1 VNT       0.487500
     28 CBC         -7.7820     0.6020     0.0520 ca         1 VNT      -0.146500
     29 CAG         -8.9250     1.0930    -0.6200 ca         1 VNT      -0.066500
     30 CAE        -10.2050     0.9350    -0.0600 ca         1 VNT      -0.118500
     31 CAD        -10.3610     0.2860     1.1750 ca         1 VNT      -0.084000
     32 CAF         -9.2330    -0.2050     1.8510 ca         1 VNT      -0.118500
     33 CAH         -7.9510    -0.0500     1.2950 ca         1 VNT      -0.066500
     34 ClC          4.4850     1.2950     2.3270 cl         1 VNT      -0.179000
     35 ClB          6.7310     4.3100    -1.6110 cl         1 VNT      -0.185000
     36 H1           5.8880     3.3540     0.9720 ha         1 VNT       0.148000
     37 H2           5.5840     2.1670    -3.1570 ha         1 VNT       0.136000
     38 H3           4.2980     0.1620    -2.5040 ha         1 VNT       0.117000
     39 H4           3.7450    -0.8710     1.1000 h1         1 VNT       0.122700
     40 H5           3.7340    -1.8840    -1.7680 h1         1 VNT       0.075200
     41 H6           5.1180    -2.0090    -0.6710 h1         1 VNT       0.075200
     42 H7           3.5310    -5.7340     1.7070 h5         1 VNT       0.068100
     43 H8           1.5750    -3.3990    -1.1950 h5         1 VNT       0.059100
     44 H9           1.8610     0.1170    -0.9850 hn         1 VNT       0.313500
     45 H10         -1.1620    -1.2540     2.1070 ha         1 VNT       0.131000
     46 H11         -3.4750    -0.6800     1.5250 ha         1 VNT       0.138000
     47 H12          0.2090     0.5840    -1.5810 ha         1 VNT       0.131000
     48 H13         -2.0960     1.1510    -2.1500 ha         1 VNT       0.138000
     49 H14         -8.8260     1.5990    -1.5780 ha         1 VNT       0.132000
     50 H15        -11.0780     1.3170    -0.5860 ha         1 VNT       0.120500
     51 H16        -11.3520     0.1650     1.6070 ha         1 VNT       0.118000
     52 H17         -9.3520    -0.7080     2.8090 ha         1 VNT       0.120500
     53 H18         -7.0920    -0.4390     1.8380 ha         1 VNT       0.132000
@<TRIPOS>BOND
     1     1     2 ar  
     2     1     6 ar  
     3     1    34 1   
     4     2     3 ar  
     5     2    36 1   
     6     3     4 ar  
     7     3    35 1   
     8     4     5 ar  
     9     4    37 1   
    10     5     6 ar  
    11     5    38 1   
    12     6     7 1   
    13     7     8 1   
    14     7    14 1   
    15     7    39 1   
    16     8     9 1   
    17     8    40 1   
    18     8    41 1   
    19     9    10 1   
    20     9    13 1   
    21    10    11 2   
    22    11    12 1   
    23    11    42 1   
    24    12    13 2   
    25    13    43 1   
    26    14    15 1   
    27    14    44 1   
    28    15    16 2   
    29    15    17 1   
    30    17    18 ar  
    31    17    20 ar  
    32    18    19 ar  
    33    18    45 1   
    34    19    22 ar  
    35    19    46 1   
    36    20    21 ar  
    37    20    47 1   
    38    21    22 ar  
    39    21    48 1   
    40    22    23 1   
    41    23    24 1   
    42    23    25 2   
    43    24    27 1   
    44    25    26 1   
    45    26    27 2   
    46    27    28 1   
    47    28    29 ar  
    48    28    33 ar  
    49    29    30 ar  
    50    29    49 1   
    51    30    31 ar  
    52    30    50 1   
    53    31    32 ar  
    54    31    51 1   
    55    32    33 ar  
    56    32    52 1   
    57    33    53 1   
@<TRIPOS>SUBSTRUCTURE
     1 VNT         1 TEMP              0 ****  ****    0 ROOT
