@<TRIPOS>MOLECULE
VNT
   53    57     1     0     0
SMALL
bcc


@<TRIPOS>ATOM
      1 CBA          5.3030     0.9550     0.7180 ca         1 VNT       0.045400
      2 CAQ          5.9060     2.2020     0.6650 ca         1 VNT      -0.113000
      3 CAZ          5.3220     3.1880    -0.1110 ca         1 VNT       0.039400
      4 CAI          4.1590     2.9430    -0.8220 ca         1 VNT      -0.119000
      5 CAN          3.5800     1.6870    -0.7450 ca         1 VNT      -0.105000
      6 CBE          4.1300     0.6680     0.0240 ca         1 VNT      -0.100300
      7 CBH          3.4920    -0.7050     0.0730 c3         1 VNT       0.145000
      8 CAR          4.1660    -1.6260    -0.9480 c3         1 VNT       0.049300
      9 NBI          3.6170    -2.9570    -0.8890 na         1 VNT      -0.032400
     10 NAT          3.7740    -3.7230     0.1930 nc         1 VNT      -0.529800
     11 CAO          3.0780    -4.7950    -0.1040 cd         1 VNT       0.520900
     12 NAS          2.4800    -4.7570    -1.3130 nd         1 VNT      -0.693000
     13 CAP          2.8380    -3.5810    -1.7770 cc         1 VNT       0.401400
     14 NAW          2.0720    -0.6820    -0.1680 ns         1 VNT      -0.575900
     15 CAY          1.1830    -0.4690     0.8270 c          1 VNT       0.682700
     16 OAA          1.5210    -0.2480     1.9770 o          1 VNT      -0.571100
     17 CBB         -0.2560    -0.5190     0.4320 ca         1 VNT      -0.133600
     18 CAJ         -1.1700     0.2160     1.1800 ca         1 VNT      -0.098000
     19 CAL         -2.5150     0.2030     0.8580 ca         1 VNT      -0.096000
     20 CAK         -0.7140    -1.2990    -0.6290 ca         1 VNT      -0.098000
     21 CAM         -2.0580    -1.3260    -0.9500 ca         1 VNT      -0.096000
     22 CBD         -2.9670    -0.5680    -0.2130 ca         1 VNT      -0.116500
     23 CBG         -4.3710    -0.5970    -0.5780 cc         1 VNT       0.514900
     24 OAX         -5.2670     0.1030     0.1330 os         1 VNT      -0.363800
     25 NAV         -4.9360    -1.2280    -1.5500 nd         1 VNT      -0.351000
     26 NAU         -6.2650    -0.9390    -1.4900 nd         1 VNT      -0.358000
     27 CBF         -6.4320    -0.1480    -0.4830 cc         1 VNT       0.531900
     28 CBC         -7.6600     0.4500     0.0080 ca         1 VNT      -0.146500
     29 CAG         -8.8530     0.2000    -0.6730 ca         1 VNT      -0.084500
     30 CAE        -10.0360     0.7610    -0.2230 ca         1 VNT      -0.136500
     31 CAD        -10.0390     1.5720     0.9060 ca         1 VNT      -0.102000
     32 CAF         -8.8540     1.8200     1.5850 ca         1 VNT      -0.136500
     33 CAH         -7.6640     1.2630     1.1410 ca         1 VNT      -0.084500
     34 CLC          6.0620    -0.2610     1.6920 cl         1 VNT      -0.087400
     35 CLB          6.0590     4.7500    -0.1850 cl         1 VNT      -0.093400
     36 H1           6.8140     2.3960     1.2190 ha         1 VNT       0.166000
     37 H2           3.7070     3.7150    -1.4290 ha         1 VNT       0.154000
     38 H3           2.6680     1.5080    -1.2980 ha         1 VNT       0.135000
     39 H4           3.6470    -1.1260     1.0670 h1         1 VNT       0.122700
     40 H5           4.0250    -1.2510    -1.9630 h1         1 VNT       0.075200
     41 H6           5.2380    -1.6720    -0.7590 h1         1 VNT       0.075200
     42 H7           3.0020    -5.6330     0.5730 h5         1 VNT       0.068100
     43 H8           2.5730    -3.1550    -2.7330 h5         1 VNT       0.059100
     44 H9           1.7470    -0.6900    -1.1220 hn         1 VNT       0.313500
     45 H10         -0.8300     0.8130     2.0150 ha         1 VNT       0.149000
     46 H11         -3.2020     0.7980     1.4440 ha         1 VNT       0.156000
     47 H12         -0.0350    -1.9180    -1.2010 ha         1 VNT       0.149000
     48 H13         -2.4010    -1.9380    -1.7720 ha         1 VNT       0.156000
     49 H14         -8.8530    -0.4300    -1.5520 ha         1 VNT       0.150000
     50 H15        -10.9570     0.5670    -0.7550 ha         1 VNT       0.138500
     51 H16        -10.9650     2.0100     1.2550 ha         1 VNT       0.136000
     52 H17         -8.8520     2.4510     2.4640 ha         1 VNT       0.138500
     53 H18         -6.7490     1.4660     1.6810 ha         1 VNT       0.150000
@<TRIPOS>BOND
     1     1     2 ar  
     2     1     6 ar  
     3     1    34 1   
     4     2     3 ar  
     5     2    36 1   
     6     3     4 ar  
     7     3    35 1   
     8     4     5 ar  
     9     4    37 1   
    10     5     6 ar  
    11     5    38 1   
    12     6     7 1   
    13     7     8 1   
    14     7    14 1   
    15     7    39 1   
    16     8     9 1   
    17     8    40 1   
    18     8    41 1   
    19     9    10 1   
    20     9    13 1   
    21    10    11 2   
    22    11    12 1   
    23    11    42 1   
    24    12    13 2   
    25    13    43 1   
    26    14    15 1   
    27    14    44 1   
    28    15    16 2   
    29    15    17 1   
    30    17    18 ar  
    31    17    20 ar  
    32    18    19 ar  
    33    18    45 1   
    34    19    22 ar  
    35    19    46 1   
    36    20    21 ar  
    37    20    47 1   
    38    21    22 ar  
    39    21    48 1   
    40    22    23 1   
    41    23    24 1   
    42    23    25 2   
    43    24    27 1   
    44    25    26 1   
    45    26    27 2   
    46    27    28 1   
    47    28    29 ar  
    48    28    33 ar  
    49    29    30 ar  
    50    29    49 1   
    51    30    31 ar  
    52    30    50 1   
    53    31    32 ar  
    54    31    51 1   
    55    32    33 ar  
    56    32    52 1   
    57    33    53 1   
@<TRIPOS>SUBSTRUCTURE
     1 VNT         1 TEMP              0 ****  ****    0 ROOT
