@<TRIPOS>MOLECULE
VNU
   31    32     1     0     0
SMALL
abcg2


@<TRIPOS>ATOM
      1 N1          28.9130    19.6910    39.6510 n8         1 VNU      -0.982200
      2 C7          29.9410    16.1010    42.2820 cy         1 VNU      -0.094400
      3 C8          29.4830    14.6370    42.4580 cy         1 VNU      -0.087400
      4 C9          28.0260    15.1160    42.2650 cy         1 VNU      -0.094400
      5 C1          29.5260    15.9060    37.9330 ca         1 VNU      -0.113000
      6 C5          27.2090    16.5220    38.0650 ca         1 VNU      -0.113000
      7 C6          28.5700    16.4260    41.6140 cy         1 VNU       0.153700
      8 C4          27.3120    16.6000    39.4470 ca         1 VNU      -0.101000
      9 C3          28.5240    16.3400    40.0950 ca         1 VNU      -0.091300
     10 C2          29.6250    15.9850    39.3210 ca         1 VNU      -0.101000
     11 O           27.4870    19.8230    42.3340 o          1 VNU      -0.594100
     12 C10         28.1710    18.9150    41.8550 c          1 VNU       0.605100
     13 C11         29.3710    19.2350    40.9710 c3         1 VNU       0.075800
     14 N           27.8800    17.6200    42.0970 ns         1 VNU      -0.507900
     15 C           28.3200    16.1770    37.2990 ca         1 VNU      -0.107000
     16 H1          29.7040    20.0690    39.1410 hn         1 VNU       0.399000
     17 H2          28.5820    18.8960    39.1130 hn         1 VNU       0.399000
     18 H5          29.9990    16.6190    43.2390 hc         1 VNU       0.060200
     19 H6          29.8170    13.9990    41.6410 hc         1 VNU       0.057200
     20 H7          29.7190    14.1560    43.4060 hc         1 VNU       0.057200
     21 H8          27.5470    15.3340    43.2200 hc         1 VNU       0.060200
     22 H9          27.3580    14.5150    41.6510 hc         1 VNU       0.060200
     23 H10         30.3980    15.6370    37.3510 ha         1 VNU       0.117000
     24 H11         26.2620    16.7350    37.5840 ha         1 VNU       0.117000
     25 H12         26.4460    16.8800    40.0320 ha         1 VNU       0.118500
     26 H13         30.5780    15.7760    39.7860 ha         1 VNU       0.118500
     27 H14         30.0640    18.3930    40.9250 h1         1 VNU       0.048200
     28 H15         29.8860    20.0640    41.4590 h1         1 VNU       0.048200
     29 H16         27.0970    17.4710    42.7180 hn         1 VNU       0.315500
     30 H17         28.2450    16.1220    36.2200 ha         1 VNU       0.117000
     31 H4          30.8500    16.2980    41.7190 hc         1 VNU       0.060200
@<TRIPOS>BOND
     1     1    13 1   
     2     1    16 1   
     3     1    17 1   
     4     2     3 1   
     5     2     7 1   
     6     2    18 1   
     7     2    31 1   
     8     3     4 1   
     9     3    19 1   
    10     3    20 1   
    11     4     7 1   
    12     4    21 1   
    13     4    22 1   
    14     5    10 ar  
    15     5    15 ar  
    16     5    23 1   
    17     6     8 ar  
    18     6    15 ar  
    19     6    24 1   
    20     7     9 1   
    21     7    14 1   
    22     8     9 ar  
    23     8    25 1   
    24     9    10 ar  
    25    10    26 1   
    26    11    12 2   
    27    12    13 1   
    28    12    14 1   
    29    13    27 1   
    30    13    28 1   
    31    14    29 1   
    32    15    30 1   
@<TRIPOS>SUBSTRUCTURE
     1 VNU         1 TEMP              0 ****  ****    0 ROOT
