@<TRIPOS>MOLECULE
VNU
   31    32     1     0     0
SMALL
No Charge or Current Charge


@<TRIPOS>ATOM
      1 N1          29.2170    19.5040    39.5080 n8         1 VNU      -0.982200
      2 C7          29.8520    16.1230    42.4050 cy         1 VNU      -0.094400
      3 C8          29.4470    14.6230    42.2620 cy         1 VNU      -0.087400
      4 C9          27.9830    15.1590    42.3480 cy         1 VNU      -0.094400
      5 C1          29.5200    16.1640    37.9200 ca         1 VNU      -0.113000
      6 C5          27.1010    16.3070    38.0770 ca         1 VNU      -0.113000
      7 C6          28.5020    16.4780    41.6600 cy         1 VNU       0.153700
      8 C4          27.1980    16.3930    39.4760 ca         1 VNU      -0.101000
      9 C3          28.4560    16.3690    40.1180 ca         1 VNU      -0.091300
     10 C2          29.6190    16.2510    39.3200 ca         1 VNU      -0.101000
     11 O           27.5190    19.8770    42.3540 o          1 VNU      -0.594100
     12 C10         28.2000    18.9830    41.8690 c          1 VNU       0.605100
     13 C11         29.4580    19.2960    40.9800 c3         1 VNU       0.075800
     14 N           27.8360    17.6710    42.1120 ns         1 VNU      -0.507900
     15 C           28.2620    16.1930    37.2970 ca         1 VNU      -0.107000
     16 H1          30.1150    19.6460    39.0310 hn         1 VNU       0.399000
     17 H2          28.8660    18.6230    39.1070 hn         1 VNU       0.399000
     18 H5          29.8940    16.4740    43.4440 hc         1 VNU       0.060200
     19 H6          29.7140    14.1580    41.3050 hc         1 VNU       0.057200
     20 H7          29.7650    13.9600    43.0740 hc         1 VNU       0.057200
     21 H8          27.6150    15.2920    43.3730 hc         1 VNU       0.060200
     22 H9          27.2350    14.5860    41.7900 hc         1 VNU       0.060200
     23 H10         30.4210    16.0740    37.3170 ha         1 VNU       0.117000
     24 H11         26.1250    16.3280    37.5980 ha         1 VNU       0.117000
     25 H12         26.2890    16.4810    40.0670 ha         1 VNU       0.118500
     26 H13         30.6080    16.2270    39.7660 ha         1 VNU       0.118500
     27 H14         30.1930    18.4930    41.1060 h1         1 VNU       0.048200
     28 H15         29.9140    20.2100    41.3830 h1         1 VNU       0.048200
     29 H16         27.0070    17.5720    42.6830 hn         1 VNU       0.315500
     30 H17         28.1880    16.1260    36.2140 ha         1 VNU       0.117000
     31 H4          30.7910    16.4160    41.9280 hc         1 VNU       0.060200
@<TRIPOS>BOND
     1     1    13 1   
     2     1    16 1   
     3     1    17 1   
     4     2     3 1   
     5     2     7 1   
     6     2    18 1   
     7     2    31 1   
     8     3     4 1   
     9     3    19 1   
    10     3    20 1   
    11     4     7 1   
    12     4    21 1   
    13     4    22 1   
    14     5    10 ar  
    15     5    15 ar  
    16     5    23 1   
    17     6     8 ar  
    18     6    15 ar  
    19     6    24 1   
    20     7     9 1   
    21     7    14 1   
    22     8     9 ar  
    23     8    25 1   
    24     9    10 ar  
    25    10    26 1   
    26    11    12 2   
    27    12    13 1   
    28    12    14 1   
    29    13    27 1   
    30    13    28 1   
    31    14    29 1   
    32    15    30 1   
@<TRIPOS>SUBSTRUCTURE
     1 VNU         1 TEMP              0 ****  ****    0 ROOT
