@<TRIPOS>MOLECULE
VNV
   20    21     1     0     0
SMALL
No Charge or Current Charge


@<TRIPOS>ATOM
      1 C10          9.3900   -12.3120    -0.0260 ca         1 VNV      -0.096000
      2 C02          7.8810   -17.2650     3.8220 cc         1 VNV       0.421900
      3 C03          8.7430   -16.4770     3.1540 cd         1 VNV      -0.333000
      4 C04          7.9550   -15.5110     2.4930 cd         1 VNV       0.369500
      5 C07          8.4470   -14.4160     1.6230 ca         1 VNV      -0.141500
      6 C08          7.5420   -13.5590     0.9520 ca         1 VNV      -0.079000
      7 C09          8.0110   -12.5170     0.1330 ca         1 VNV      -0.119000
      8 C11         10.2990   -13.1500     0.6370 ca         1 VNV      -0.119000
      9 C12          9.8330   -14.1930     1.4560 ca         1 VNV      -0.079000
     10 N05          6.6610   -15.6850     2.7310 nc         1 VNV      -0.383300
     11 O06          6.6000   -16.8350     3.6050 os         1 VNV      -0.102700
     12 H1           9.7530   -11.5050    -0.6590 ha         1 VNV       0.113000
     13 H2           9.8180   -16.5780     3.1370 ha         1 VNV       0.151000
     14 H3           6.4670   -13.6950     1.0570 ha         1 VNV       0.122500
     15 H4           7.3040   -11.8680    -0.3780 ha         1 VNV       0.115000
     16 H5          11.3690   -12.9910     0.5170 ha         1 VNV       0.115000
     17 H6          10.5630   -14.8220     1.9590 ha         1 VNV       0.122500
     18 H7           7.3100   -18.9330     4.8550 hn         1 VNV       0.479500
     19 H8           9.0170   -18.7880     4.5860 hn         1 VNV       0.479500
     20 N01          8.1030   -18.3420     4.6130 nv         1 VNV      -1.036900
@<TRIPOS>BOND
     1     1     7 ar  
     2     1     8 ar  
     3     1    12 1   
     4     2     3 2   
     5     2    11 1   
     6     2    20 1   
     7     3     4 1   
     8     3    13 1   
     9     4     5 1   
    10     4    10 2   
    11     5     6 ar  
    12     5     9 ar  
    13     6     7 ar  
    14     6    14 1   
    15     7    15 1   
    16     8     9 ar  
    17     8    16 1   
    18     9    17 1   
    19    10    11 1   
    20    18    20 1   
    21    19    20 1   
@<TRIPOS>SUBSTRUCTURE
     1 VNV         1 TEMP              0 ****  ****    0 ROOT
