@<TRIPOS>MOLECULE
VNV
   20    21     1     0     0
SMALL
abcg2


@<TRIPOS>ATOM
      1 C10          9.3500   -12.3340    -0.0260 ca         1 VNV      -0.096000
      2 C02          7.9050   -17.2450     3.8060 cc         1 VNV       0.421900
      3 C03          8.8230   -16.5030     3.1160 cd         1 VNV      -0.333000
      4 C04          8.0390   -15.4850     2.5260 cd         1 VNV       0.369500
      5 C07          8.4870   -14.3980     1.6480 ca         1 VNV      -0.141500
      6 C08          7.5620   -13.6090     0.9590 ca         1 VNV      -0.079000
      7 C09          7.9920   -12.5870     0.1300 ca         1 VNV      -0.119000
      8 C11         10.2750   -13.1120     0.6550 ca         1 VNV      -0.119000
      9 C12          9.8460   -14.1370     1.4870 ca         1 VNV      -0.079000
     10 N05          6.7750   -15.6040     2.8370 nc         1 VNV      -0.383300
     11 O06          6.6940   -16.7150     3.6470 os         1 VNV      -0.102700
     12 H1           9.6840   -11.5350    -0.6750 ha         1 VNV       0.113000
     13 H2           9.8810   -16.6820     3.0330 ha         1 VNV       0.151000
     14 H3           6.5030   -13.8020     1.0660 ha         1 VNV       0.122500
     15 H4           7.2640   -11.9860    -0.4000 ha         1 VNV       0.115000
     16 H5          11.3340   -12.9220     0.5430 ha         1 VNV       0.115000
     17 H6          10.5810   -14.7300     2.0160 ha         1 VNV       0.122500
     18 H7           7.1930   -18.8970     4.7320 hn         1 VNV       0.479500
     19 H8           8.8670   -18.8410     4.5470 hn         1 VNV       0.479500
     20 N01          8.0100   -18.3170     4.6200 nv         1 VNV      -1.036900
@<TRIPOS>BOND
     1     1     7 ar  
     2     1     8 ar  
     3     1    12 1   
     4     2     3 2   
     5     2    11 1   
     6     2    20 1   
     7     3     4 1   
     8     3    13 1   
     9     4     5 1   
    10     4    10 2   
    11     5     6 ar  
    12     5     9 ar  
    13     6     7 ar  
    14     6    14 1   
    15     7    15 1   
    16     8     9 ar  
    17     8    16 1   
    18     9    17 1   
    19    10    11 1   
    20    18    20 1   
    21    19    20 1   
@<TRIPOS>SUBSTRUCTURE
     1 VNV         1 TEMP              0 ****  ****    0 ROOT
