@<TRIPOS>MOLECULE
VNX
   14    15     1     0     0
SMALL
No Charge or Current Charge


@<TRIPOS>ATOM
      1 N1          -0.6290    11.3270   -35.5410 na         1 VNX       0.097600
      2 N2          -1.1610    11.2020   -34.2920 nc         1 VNX      -0.167800
      3 C1          -2.5240    15.2270   -36.2150 cx         1 VNX      -0.105900
      4 N3          -1.5950    12.3920   -33.9900 nd         1 VNX      -0.392000
      5 C3          -1.3220    13.2120   -35.0620 cd         1 VNX       0.540300
      6 C2          -1.6500    14.6610   -35.1140 cx         1 VNX      -0.177000
      7 C           -3.0460    15.1590   -34.7990 cx         1 VNX      -0.105900
      8 N           -0.7140    12.5920   -36.0520 nc         1 VNX      -0.517800
      9 H1          -0.2070    10.5400   -36.0370 hn         1 VNX       0.405000
     10 H3          -2.9440    14.5360   -36.9420 hc         1 VNX       0.080950
     11 H4          -0.8230    15.2800   -34.7790 hc         1 VNX       0.099700
     12 H5          -3.1400    16.0920   -34.2470 hc         1 VNX       0.080950
     13 H6          -3.8170    14.4230   -34.5800 hc         1 VNX       0.080950
     14 H2          -2.2660    16.2050   -36.6150 hc         1 VNX       0.080950
@<TRIPOS>BOND
     1     1     2 1   
     2     1     8 1   
     3     1     9 1   
     4     2     4 2   
     5     3     6 1   
     6     3     7 1   
     7     3    10 1   
     8     3    14 1   
     9     4     5 1   
    10     5     6 1   
    11     5     8 2   
    12     6     7 1   
    13     6    11 1   
    14     7    12 1   
    15     7    13 1   
@<TRIPOS>SUBSTRUCTURE
     1 VNX         1 TEMP              0 ****  ****    0 ROOT
