@<TRIPOS>MOLECULE
VNX
   14    15     1     0     0
SMALL
abcg2


@<TRIPOS>ATOM
      1 N1          -0.4260    11.3740   -35.2480 na         1 VNX       0.097600
      2 N2          -1.7040    11.1030   -35.1360 nc         1 VNX      -0.167800
      3 C1          -2.8500    15.1610   -36.0810 cx         1 VNX      -0.105900
      4 N3          -2.3220    12.2580   -35.1630 nd         1 VNX      -0.392000
      5 C3          -1.3620    13.2120   -35.2950 cd         1 VNX       0.540300
      6 C2          -1.6150    14.6510   -35.3690 cx         1 VNX      -0.177000
      7 C           -2.7650    15.2540   -34.5920 cx         1 VNX      -0.105900
      8 N           -0.1500    12.6660   -35.3500 nc         1 VNX      -0.517800
      9 H1           0.2840    10.6530   -35.2550 hn         1 VNX       0.405000
     10 H3          -3.5110    14.4160   -36.5040 hc         1 VNX       0.080950
     11 H4          -0.7150    15.2440   -35.4590 hc         1 VNX       0.099700
     12 H5          -2.5950    16.2220   -34.1420 hc         1 VNX       0.080950
     13 H6          -3.3680    14.5710   -34.0080 hc         1 VNX       0.080950
     14 H2          -2.7390    16.0650   -36.6630 hc         1 VNX       0.080950
@<TRIPOS>BOND
     1     1     2 1   
     2     1     8 1   
     3     1     9 1   
     4     2     4 2   
     5     3     6 1   
     6     3     7 1   
     7     3    10 1   
     8     3    14 1   
     9     4     5 1   
    10     5     6 1   
    11     5     8 2   
    12     6     7 1   
    13     6    11 1   
    14     7    12 1   
    15     7    13 1   
@<TRIPOS>SUBSTRUCTURE
     1 VNX         1 TEMP              0 ****  ****    0 ROOT
