@<TRIPOS>MOLECULE
VNY
   50    52     1     0     0
SMALL
bcc


@<TRIPOS>ATOM
      1 O6          -3.6080    -2.9620     1.7100 oh         1 VNY      -0.588800
      2 C6          -4.3580    -1.7730     1.7930 c3         1 VNY       0.147400
      3 C5          -3.6230    -0.6770     1.0500 c6         1 VNY       0.146100
      4 O5          -3.5610    -1.0540    -0.3080 os         1 VNY      -0.376600
      5 C4          -4.3290     0.6740     1.1980 c6         1 VNY       0.121100
      6 O4          -4.2820     1.0400     2.5570 oh         1 VNY      -0.602800
      7 C3          -3.6300     1.7130     0.3280 c6         1 VNY       0.120100
      8 O3          -4.3440     2.9200     0.4530 oh         1 VNY      -0.587800
      9 C2          -3.5300     1.2350    -1.1170 c6         1 VNY       0.094100
     10 O2          -4.8320     1.2010    -1.6490 oh         1 VNY      -0.570800
     11 C1          -2.8740    -0.1530    -1.1620 c6         1 VNY       0.154300
     12 C7          -1.4040    -0.0920    -0.8670 c2         1 VNY      -0.207200
     13 C8          -0.4080    -0.5740    -1.6230 ce         1 VNY      -0.020400
     14 C21         -0.5900    -1.3030    -2.9230 c3         1 VNY      -0.057900
     15 C9           0.9920    -0.4030    -1.1660 ca         1 VNY      -0.056800
     16 C10          1.9450    -1.4030    -1.3660 ca         1 VNY      -0.117500
     17 C11          3.2450    -1.2580    -0.9100 ca         1 VNY      -0.118500
     18 C12          3.6520    -0.0990    -0.2480 cp         1 VNY      -0.028000
     19 C13          2.7060     0.9120    -0.0680 ca         1 VNY      -0.118500
     20 C14          1.4060     0.7640    -0.5200 ca         1 VNY      -0.117500
     21 C15          5.0350     0.0550     0.2440 cp         1 VNY      -0.036000
     22 C20          5.2920     0.7010     1.4550 ca         1 VNY      -0.116500
     23 C19          6.5900     0.8420     1.9230 ca         1 VNY      -0.129000
     24 C18          7.6570     0.3400     1.1890 ca         1 VNY      -0.124000
     25 C17          7.4140    -0.3030    -0.0180 ca         1 VNY      -0.129000
     26 C16          6.1160    -0.4440    -0.4850 ca         1 VNY      -0.116500
     27 H6          -4.0280    -3.6170     2.2740 ho         1 VNY       0.402000
     28 H61C        -5.3590    -1.8920     1.3550 h1         1 VNY       0.035200
     29 H62C        -4.4970    -1.4540     2.8310 h1         1 VNY       0.035200
     30 H5          -2.6130    -0.5870     1.4790 h1         1 VNY       0.057700
     31 H4          -5.3690     0.5630     0.8570 h1         1 VNY       0.071700
     32 H1          -3.0310    -0.5500    -2.1680 h1         1 VNY       0.075700
     33 HA          -4.6910     1.9070     2.6430 ho         1 VNY       0.422000
     34 H3          -2.6080     1.8370     0.7140 h1         1 VNY       0.042700
     35 HB          -3.7750     3.6450     0.1780 ho         1 VNY       0.407000
     36 H2          -2.8900     1.9300    -1.6820 h1         1 VNY       0.036700
     37 HC          -4.7710     0.9870    -2.5860 ho         1 VNY       0.403000
     38 H7          -1.1230     0.3700     0.0730 ha         1 VNY       0.126000
     39 H211         0.0230    -0.8530    -3.7060 hc         1 VNY       0.045700
     40 H212        -0.2770    -2.3440    -2.8340 hc         1 VNY       0.045700
     41 H213        -1.6200    -1.3090    -3.2700 hc         1 VNY       0.045700
     42 H10          1.6710    -2.3270    -1.8590 ha         1 VNY       0.131000
     43 H14          0.7110     1.5840    -0.3920 ha         1 VNY       0.131000
     44 H11          3.9440    -2.0720    -1.0530 ha         1 VNY       0.133500
     45 H13          2.9940     1.8420     0.4060 ha         1 VNY       0.133500
     46 H20          4.4700     1.0800     2.0490 ha         1 VNY       0.132000
     47 H16          5.9450    -0.9320    -1.4370 ha         1 VNY       0.132000
     48 H19          6.7680     1.3400     2.8670 ha         1 VNY       0.131000
     49 H18          8.6700     0.4500     1.5540 ha         1 VNY       0.131000
     50 H17          8.2390    -0.6900    -0.6020 ha         1 VNY       0.131000
@<TRIPOS>BOND
     1     1     2 1   
     2     1    27 1   
     3     2     3 1   
     4     2    28 1   
     5     2    29 1   
     6     3     4 1   
     7     3     5 1   
     8     3    30 1   
     9     4    11 1   
    10     5     6 1   
    11     5     7 1   
    12     5    31 1   
    13     6    33 1   
    14     7     8 1   
    15     7     9 1   
    16     7    34 1   
    17     8    35 1   
    18     9    10 1   
    19     9    11 1   
    20     9    36 1   
    21    10    37 1   
    22    11    12 1   
    23    11    32 1   
    24    12    13 2   
    25    12    38 1   
    26    13    14 1   
    27    13    15 1   
    28    14    39 1   
    29    14    40 1   
    30    14    41 1   
    31    15    16 ar  
    32    15    20 ar  
    33    16    17 ar  
    34    16    42 1   
    35    17    18 ar  
    36    17    44 1   
    37    18    19 ar  
    38    18    21 1   
    39    19    20 ar  
    40    19    45 1   
    41    20    43 1   
    42    21    22 ar  
    43    21    26 ar  
    44    22    23 ar  
    45    22    46 1   
    46    23    24 ar  
    47    23    48 1   
    48    24    25 ar  
    49    24    49 1   
    50    25    26 ar  
    51    25    50 1   
    52    26    47 1   
@<TRIPOS>SUBSTRUCTURE
     1 VNY         1 TEMP              0 ****  ****    0 ROOT
