@<TRIPOS>MOLECULE
VNY
   50    52     1     0     0
SMALL
No Charge or Current Charge


@<TRIPOS>ATOM
      1 O6          -3.4770    -3.3410     0.3630 oh         1 VNY      -0.711000
      2 C6          -4.1750    -2.2220     0.9490 c3         1 VNY       0.170600
      3 C5          -3.5410    -0.8330     0.6000 c6         1 VNY       0.169300
      4 O5          -3.4860    -0.7040    -0.8480 os         1 VNY      -0.423000
      5 C4          -4.3540     0.3540     1.2050 c6         1 VNY       0.144300
      6 O4          -4.3980     0.3080     2.6470 oh         1 VNY      -0.725000
      7 C3          -3.7390     1.7110     0.7400 c6         1 VNY       0.143300
      8 O3          -4.5470     2.8070     1.2000 oh         1 VNY      -0.650000
      9 C2          -3.6210     1.7650    -0.8160 c6         1 VNY       0.117300
     10 O2          -4.9480     1.8510    -1.3880 oh         1 VNY      -0.693000
     11 C1          -2.8440     0.5020    -1.3280 c6         1 VNY       0.177500
     12 C7          -1.3590     0.5140    -0.9570 c2         1 VNY      -0.257200
     13 C8          -0.4520    -0.4210    -1.3340 ce         1 VNY      -0.020400
     14 C21         -0.8090    -1.6080    -2.2190 c3         1 VNY      -0.057900
     15 C9           0.9790    -0.2910    -0.9300 ca         1 VNY      -0.056800
     16 C10          1.6870    -1.4060    -0.4420 ca         1 VNY      -0.099500
     17 C11          3.0340    -1.2850    -0.0600 ca         1 VNY      -0.100500
     18 C12          3.7150    -0.0460    -0.1530 cp         1 VNY      -0.028000
     19 C13          2.9900     1.0670    -0.6460 ca         1 VNY      -0.100500
     20 C14          1.6420     0.9470    -1.0280 ca         1 VNY      -0.099500
     21 C15          5.1520     0.0820     0.2540 cp         1 VNY      -0.036000
     22 C20          5.6400     1.2710     0.8550 ca         1 VNY      -0.098500
     23 C19          6.9870     1.3920     1.2380 ca         1 VNY      -0.111000
     24 C18          7.8770     0.3260     1.0270 ca         1 VNY      -0.106000
     25 C17          7.4170    -0.8600     0.4330 ca         1 VNY      -0.111000
     26 C16          6.0690    -0.9800     0.0520 ca         1 VNY      -0.098500
     27 H6          -3.9900    -4.1500     0.5900 ho         1 VNY       0.501000
     28 H61C        -5.2200    -2.2120     0.6120 h1         1 VNY       0.035200
     29 H62C        -4.1890    -2.3260     2.0430 h1         1 VNY       0.035200
     30 H5          -2.5180    -0.8180     1.0020 h1         1 VNY       0.057700
     31 H4          -5.3780     0.2910     0.8030 h1         1 VNY       0.071700
     32 H1          -2.9080     0.4960    -2.4260 h1         1 VNY       0.075700
     33 HA          -4.6400     1.2250     2.9250 ho         1 VNY       0.521000
     34 H3          -2.7300     1.7950     1.1700 h1         1 VNY       0.042700
     35 HB          -5.1780     2.9630     0.4590 ho         1 VNY       0.446000
     36 H2          -3.0440     2.6610    -1.0930 h1         1 VNY       0.036700
     37 HC          -4.8490     1.8300    -2.3680 ho         1 VNY       0.502000
     38 H7          -1.0350     1.3510    -0.3400 ha         1 VNY       0.176000
     39 H211         0.0790    -2.0350    -2.7000 hc         1 VNY       0.045700
     40 H212        -1.2840    -2.4040    -1.6340 hc         1 VNY       0.045700
     41 H213        -1.4990    -1.3250    -3.0220 hc         1 VNY       0.045700
     42 H10          1.1900    -2.3690    -0.3480 ha         1 VNY       0.113000
     43 H14          1.1180     1.8180    -1.4140 ha         1 VNY       0.113000
     44 H11          3.5490    -2.1600     0.3270 ha         1 VNY       0.115500
     45 H13          3.4790     2.0320    -0.7480 ha         1 VNY       0.115500
     46 H20          4.9660     2.1030     1.0410 ha         1 VNY       0.114000
     47 H16          5.7380    -1.9030    -0.4190 ha         1 VNY       0.114000
     48 H19          7.3400     2.3110     1.7010 ha         1 VNY       0.113000
     49 H18          8.9200     0.4200     1.3230 ha         1 VNY       0.113000
     50 H17          8.1050    -1.6860     0.2660 ha         1 VNY       0.113000
@<TRIPOS>BOND
     1     1     2 1   
     2     1    27 1   
     3     2     3 1   
     4     2    28 1   
     5     2    29 1   
     6     3     4 1   
     7     3     5 1   
     8     3    30 1   
     9     4    11 1   
    10     5     6 1   
    11     5     7 1   
    12     5    31 1   
    13     6    33 1   
    14     7     8 1   
    15     7     9 1   
    16     7    34 1   
    17     8    35 1   
    18     9    10 1   
    19     9    11 1   
    20     9    36 1   
    21    10    37 1   
    22    11    12 1   
    23    11    32 1   
    24    12    13 2   
    25    12    38 1   
    26    13    14 1   
    27    13    15 1   
    28    14    39 1   
    29    14    40 1   
    30    14    41 1   
    31    15    16 ar  
    32    15    20 ar  
    33    16    17 ar  
    34    16    42 1   
    35    17    18 ar  
    36    17    44 1   
    37    18    19 ar  
    38    18    21 1   
    39    19    20 ar  
    40    19    45 1   
    41    20    43 1   
    42    21    22 ar  
    43    21    26 ar  
    44    22    23 ar  
    45    22    46 1   
    46    23    24 ar  
    47    23    48 1   
    48    24    25 ar  
    49    24    49 1   
    50    25    26 ar  
    51    25    50 1   
    52    26    47 1   
@<TRIPOS>SUBSTRUCTURE
     1 VNY         1 TEMP              0 ****  ****    0 ROOT
