@<TRIPOS>MOLECULE
VO0
   28    28     1     0     0
SMALL
abcg2


@<TRIPOS>ATOM
      1 CAA         26.7620   -18.3430    -4.1970 c5         1 VO0       0.171500
      2 CAB         27.8200   -19.2710    -3.5830 c5         1 VO0       0.155300
      3 CAC         28.8270   -18.2640    -3.0430 c5         1 VO0       0.109300
      4 CAD         27.8930   -17.1950    -2.4710 c5         1 VO0       0.136500
      5 CAF         25.3630   -18.9280    -4.1830 c3         1 VO0       0.179600
      6 CAJ         28.6360   -15.9350    -2.0520 c3         1 VO0       0.145800
      7 NAE         26.8490   -17.0530    -3.4840 n3         1 VO0      -0.708600
      8 NAK         29.5890   -16.3180    -1.0070 n8         1 VO0      -1.028200
      9 OAG         27.2790   -20.0450    -2.5380 oh         1 VO0      -0.663000
     10 OAH         29.7070   -18.8330    -2.1140 oh         1 VO0      -0.681000
     11 OAI         24.5200   -18.0970    -4.9540 oh         1 VO0      -0.669000
     12 H1          27.0490   -18.1960    -5.2480 h1         1 VO0       0.050700
     13 H2          28.2520   -19.9210    -4.3560 h1         1 VO0       0.055700
     14 H3          29.3690   -17.8260    -3.8980 h1         1 VO0       0.039700
     15 H4          27.4360   -17.6050    -1.5580 h1         1 VO0       0.075700
     16 H5          25.0110   -19.0030    -3.1490 h1         1 VO0       0.035700
     17 H6          25.3950   -19.9470    -4.5920 h1         1 VO0       0.035700
     18 H7          29.2030   -15.5290    -2.8920 h1         1 VO0       0.044200
     19 H8          27.9380   -15.1550    -1.7260 h1         1 VO0       0.044200
     20 H9          26.9620   -14.9860    -3.8340 h1         1 VO0       0.033367
     21 H10         27.8930   -15.9390    -5.0010 h1         1 VO0       0.033367
     22 H11         26.1300   -15.9110    -5.0640 h1         1 VO0       0.033367
     23 H13         30.2940   -15.6020    -0.8920 hn         1 VO0       0.408500
     24 H14         29.1120   -16.3930    -0.1160 hn         1 VO0       0.408500
     25 H16         27.9980   -20.2250    -1.9200 ho         1 VO0       0.465000
     26 H17         29.9480   -18.0820    -1.5280 ho         1 VO0       0.492000
     27 H18         23.6170   -18.4110    -4.8520 ho         1 VO0       0.441000
     28 CAL         26.9810   -15.9260    -4.3860 c3         1 VO0       0.156100
@<TRIPOS>BOND
     1     1     2 1   
     2     1     5 1   
     3     1     7 1   
     4     1    12 1   
     5     2     3 1   
     6     2     9 1   
     7     2    13 1   
     8     3     4 1   
     9     3    10 1   
    10     3    14 1   
    11     4     6 1   
    12     4     7 1   
    13     4    15 1   
    14     5    11 1   
    15     5    16 1   
    16     5    17 1   
    17     6     8 1   
    18     6    18 1   
    19     6    19 1   
    20     7    28 1   
    21     8    23 1   
    22     8    24 1   
    23     9    25 1   
    24    10    26 1   
    25    11    27 1   
    26    20    28 1   
    27    21    28 1   
    28    22    28 1   
@<TRIPOS>SUBSTRUCTURE
     1 VO0         1 TEMP              0 ****  ****    0 ROOT
