@<TRIPOS>MOLECULE
VO0
   28    28     1     0     0
SMALL
No Charge or Current Charge


@<TRIPOS>ATOM
      1 CAA         26.6400   -18.2930    -4.3230 c5         1 VO0       0.171500
      2 CAB         27.9340   -19.1580    -3.9660 c5         1 VO0       0.155300
      3 CAC         28.8330   -18.1610    -3.1620 c5         1 VO0       0.109300
      4 CAD         27.7760   -17.1640    -2.6130 c5         1 VO0       0.136500
      5 CAF         25.3070   -18.8800    -3.7430 c3         1 VO0       0.179600
      6 CAJ         28.4130   -15.9470    -1.8770 c3         1 VO0       0.145800
      7 NAE         26.9680   -16.9020    -3.8400 n3         1 VO0      -0.708600
      8 NAK         29.2090   -16.3790    -0.6910 n8         1 VO0      -1.028200
      9 OAG         27.6720   -20.3040    -3.1470 oh         1 VO0      -0.663000
     10 OAH         29.5770   -18.7770    -2.1000 oh         1 VO0      -0.681000
     11 OAI         24.1560   -18.1290    -4.1810 oh         1 VO0      -0.669000
     12 H1          26.5100   -18.2890    -5.4140 h1         1 VO0       0.050700
     13 H2          28.4510   -19.4660    -4.8850 h1         1 VO0       0.055700
     14 H3          29.5300   -17.6480    -3.8380 h1         1 VO0       0.039700
     15 H4          27.1490   -17.6720    -1.8650 h1         1 VO0       0.075700
     16 H5          25.3610   -18.8860    -2.6460 h1         1 VO0       0.035700
     17 H6          25.2110   -19.9230    -4.0750 h1         1 VO0       0.035700
     18 H7          29.0850   -15.4190    -2.5690 h1         1 VO0       0.044200
     19 H8          27.6280   -15.2490    -1.5550 h1         1 VO0       0.044200
     20 H9          27.7940   -15.0250    -4.4550 h1         1 VO0       0.033367
     21 H10         28.5000   -16.4350    -5.2820 h1         1 VO0       0.033367
     22 H11         26.8720   -15.8750    -5.7050 h1         1 VO0       0.033367
     23 H13         29.7010   -15.5580    -0.3090 hn         1 VO0       0.408500
     24 H14         28.5610   -16.6200     0.0720 hn         1 VO0       0.408500
     25 H16         28.3670   -20.2270    -2.4470 ho         1 VO0       0.465000
     26 H17         29.6800   -18.0340    -1.4390 ho         1 VO0       0.492000
     27 H18         23.3770   -18.5040    -3.7130 ho         1 VO0       0.441000
     28 CAL         27.5730   -16.0160    -4.8710 c3         1 VO0       0.156100
@<TRIPOS>BOND
     1     1     2 1   
     2     1     5 1   
     3     1     7 1   
     4     1    12 1   
     5     2     3 1   
     6     2     9 1   
     7     2    13 1   
     8     3     4 1   
     9     3    10 1   
    10     3    14 1   
    11     4     6 1   
    12     4     7 1   
    13     4    15 1   
    14     5    11 1   
    15     5    16 1   
    16     5    17 1   
    17     6     8 1   
    18     6    18 1   
    19     6    19 1   
    20     7    28 1   
    21     8    23 1   
    22     8    24 1   
    23     9    25 1   
    24    10    26 1   
    25    11    27 1   
    26    20    28 1   
    27    21    28 1   
    28    22    28 1   
@<TRIPOS>SUBSTRUCTURE
     1 VO0         1 TEMP              0 ****  ****    0 ROOT
