@<TRIPOS>MOLECULE
VO1
   36    38     1     0     0
SMALL
abcg2


@<TRIPOS>ATOM
      1 C1           2.2810    -0.6080     0.0060 cc         1 VO1       0.682300
      2 N2           2.4010    -1.9010     0.0040 nd         1 VO1      -0.730000
      3 C3           3.7190    -2.2780     0.0200 cd         1 VO1       0.327300
      4 C4           4.6050    -1.2530     0.0330 cc         1 VO1      -0.324000
      5 S5           3.7800     0.2670     0.0260 ss         1 VO1       0.029600
      6 C6           4.0610    -3.7300     0.0200 c3         1 VO1      -0.118400
      7 N7           1.0520    -0.0200    -0.0070 nu         1 VO1      -0.885800
      8 C8           0.7830     1.3270    -0.0090 ca         1 VO1       0.599900
      9 N9           1.7920     2.1660    -0.0010 nb         1 VO1      -0.724000
     10 C10          1.5490     3.4800    -0.0020 ca         1 VO1       0.351900
     11 C11          0.2750     3.9950    -0.0120 ca         1 VO1      -0.169000
     12 C12         -0.8080     3.1100    -0.0200 ca         1 VO1      -0.135000
     13 C13         -0.5670     1.7540    -0.0190 ca         1 VO1       0.052100
     14 O14         -1.4890     0.7760    -0.0250 os         1 VO1      -0.347100
     15 C15         -2.8650     1.1490    -0.0240 c3         1 VO1       0.214900
     16 C16         -3.6690    -0.1140    -0.0300 ca         1 VO1      -0.104300
     17 C17         -4.0520    -0.6980    -1.2330 ca         1 VO1      -0.082500
     18 C18         -4.7680    -1.8880    -1.2410 ca         1 VO1      -0.114000
     19 C19         -5.1040    -2.5040    -0.0430 ca         1 VO1      -0.094000
     20 C20         -4.7230    -1.9270     1.1620 ca         1 VO1      -0.114000
     21 C21         -4.0080    -0.7370     1.1670 ca         1 VO1      -0.082500
     22 H1           5.6830    -1.3040     0.0450 h4         1 VO1       0.154000
     23 H2           3.6580    -4.2280    -0.8630 hc         1 VO1       0.046367
     24 H3           5.1400    -3.8770     0.0290 hc         1 VO1       0.046367
     25 H4           3.6420    -4.2310     0.8940 hc         1 VO1       0.046367
     26 H5           0.2750    -0.6640    -0.0160 hn         1 VO1       0.534000
     27 H6           2.4160     4.1280     0.0050 h4         1 VO1       0.025100
     28 H7           0.1110     5.0630    -0.0120 ha         1 VO1       0.126000
     29 H8          -1.8170     3.5000    -0.0260 ha         1 VO1       0.123000
     30 H9          -3.0870     1.7490     0.8650 h1         1 VO1       0.042700
     31 H10         -3.0870     1.7570    -0.9070 h1         1 VO1       0.042700
     32 H11         -3.7970    -0.2170    -2.1700 ha         1 VO1       0.115000
     33 H12         -5.0630    -2.3330    -2.1830 ha         1 VO1       0.116000
     34 H13         -5.6640    -3.4300    -0.0480 ha         1 VO1       0.115000
     35 H14         -4.9830    -2.4030     2.0990 ha         1 VO1       0.116000
     36 H15         -3.7180    -0.2880     2.1090 ha         1 VO1       0.115000
@<TRIPOS>BOND
     1     1     2 2   
     2     1     5 1   
     3     1     7 1   
     4     2     3 1   
     5     3     4 2   
     6     3     6 1   
     7     4     5 1   
     8     4    22 1   
     9     6    23 1   
    10     6    24 1   
    11     6    25 1   
    12     7     8 1   
    13     7    26 1   
    14     8     9 ar  
    15     8    13 ar  
    16     9    10 ar  
    17    10    11 ar  
    18    10    27 1   
    19    11    12 ar  
    20    11    28 1   
    21    12    13 ar  
    22    12    29 1   
    23    13    14 1   
    24    14    15 1   
    25    15    16 1   
    26    15    30 1   
    27    15    31 1   
    28    16    17 ar  
    29    16    21 ar  
    30    17    18 ar  
    31    17    32 1   
    32    18    19 ar  
    33    18    33 1   
    34    19    20 ar  
    35    19    34 1   
    36    20    21 ar  
    37    20    35 1   
    38    21    36 1   
@<TRIPOS>SUBSTRUCTURE
     1 VO1         1 TEMP              0 ****  ****    0 ROOT
