@<TRIPOS>MOLECULE
VO1
   36    38     1     0     0
SMALL
No Charge or Current Charge


@<TRIPOS>ATOM
      1 C1           2.4510    -0.4620     0.0040 cc         1 VO1       0.682300
      2 N2           2.3380    -1.7680     0.0020 nd         1 VO1      -0.730000
      3 C3           3.6010    -2.3380     0.0090 cd         1 VO1       0.327300
      4 C4           4.6480    -1.4470     0.0160 cc         1 VO1      -0.324000
      5 S5           4.0740     0.1970     0.0140 ss         1 VO1       0.029600
      6 C6           3.7340    -3.8330     0.0090 c3         1 VO1      -0.118400
      7 N7           1.2760     0.2000    -0.0020 nu         1 VO1      -0.885800
      8 C8           0.8820     1.5180    -0.0030 ca         1 VO1       0.599900
      9 N9           1.8770     2.4190     0.0030 nb         1 VO1      -0.724000
     10 C10          1.5350     3.7270     0.0020 ca         1 VO1       0.351900
     11 C11          0.2000     4.1710    -0.0050 ca         1 VO1      -0.169000
     12 C12         -0.8450     3.2300    -0.0110 ca         1 VO1      -0.135000
     13 C13         -0.4990     1.8610    -0.0100 ca         1 VO1       0.052100
     14 O14         -1.4570     0.8540    -0.0160 os         1 VO1      -0.347100
     15 C15         -2.8660     1.1360    -0.0230 c3         1 VO1       0.214900
     16 C16         -3.6180    -0.1880    -0.0290 ca         1 VO1      -0.104300
     17 C17         -3.9610    -0.8060    -1.2480 ca         1 VO1      -0.082500
     18 C18         -4.6540    -2.0290    -1.2520 ca         1 VO1      -0.114000
     19 C19         -5.0090    -2.6420    -0.0380 ca         1 VO1      -0.094000
     20 C20         -4.6670    -2.0310     1.1810 ca         1 VO1      -0.114000
     21 C21         -3.9740    -0.8080     1.1860 ca         1 VO1      -0.082500
     22 H1           5.7100    -1.6500     0.0220 h4         1 VO1       0.154000
     23 H2           3.2640    -4.2680    -0.8810 hc         1 VO1       0.046367
     24 H3           4.7870    -4.1370     0.0150 hc         1 VO1       0.046367
     25 H4           3.2530    -4.2690     0.8920 hc         1 VO1       0.046367
     26 H5           0.5020    -0.4500    -0.0070 hn         1 VO1       0.534000
     27 H6           2.3560     4.4430     0.0070 h4         1 VO1       0.025100
     28 H7          -0.0140     5.2360    -0.0050 ha         1 VO1       0.126000
     29 H8          -1.8780     3.5700    -0.0160 ha         1 VO1       0.123000
     30 H9          -3.1500     1.7150     0.8650 h1         1 VO1       0.042700
     31 H10         -3.1410     1.7170    -0.9140 h1         1 VO1       0.042700
     32 H11         -3.6880    -0.3390    -2.1920 ha         1 VO1       0.115000
     33 H12         -4.9160    -2.5020    -2.1960 ha         1 VO1       0.116000
     34 H13         -5.5450    -3.5880    -0.0420 ha         1 VO1       0.115000
     35 H14         -4.9400    -2.5060     2.1210 ha         1 VO1       0.116000
     36 H15         -3.7110    -0.3430     2.1340 ha         1 VO1       0.115000
@<TRIPOS>BOND
     1     1     2 2   
     2     1     5 1   
     3     1     7 1   
     4     2     3 1   
     5     3     4 2   
     6     3     6 1   
     7     4     5 1   
     8     4    22 1   
     9     6    23 1   
    10     6    24 1   
    11     6    25 1   
    12     7     8 1   
    13     7    26 1   
    14     8     9 ar  
    15     8    13 ar  
    16     9    10 ar  
    17    10    11 ar  
    18    10    27 1   
    19    11    12 ar  
    20    11    28 1   
    21    12    13 ar  
    22    12    29 1   
    23    13    14 1   
    24    14    15 1   
    25    15    16 1   
    26    15    30 1   
    27    15    31 1   
    28    16    17 ar  
    29    16    21 ar  
    30    17    18 ar  
    31    17    32 1   
    32    18    19 ar  
    33    18    33 1   
    34    19    20 ar  
    35    19    34 1   
    36    20    21 ar  
    37    20    35 1   
    38    21    36 1   
@<TRIPOS>SUBSTRUCTURE
     1 VO1         1 TEMP              0 ****  ****    0 ROOT
