@<TRIPOS>MOLECULE
VO2
   39    41     1     0     0
SMALL
abcg2


@<TRIPOS>ATOM
      1 C1           2.2980    -0.8700     0.0170 cc         1 VO2       0.683300
      2 N2           2.4180    -2.1630     0.0030 nd         1 VO2      -0.731000
      3 C3           3.7360    -2.5400     0.0180 cd         1 VO2       0.328300
      4 C4           4.6220    -1.5160     0.0460 cc         1 VO2      -0.324000
      5 S5           3.7970     0.0040     0.0520 ss         1 VO2       0.027600
      6 C6           4.0790    -3.9910     0.0040 c3         1 VO2      -0.118400
      7 N7           1.0700    -0.2810     0.0060 nu         1 VO2      -0.885800
      8 C8           0.8030     1.0680     0.0080 ca         1 VO2       0.595900
      9 N9           1.8080     1.9090     0.0300 nb         1 VO2      -0.719000
     10 C10          1.5650     3.2230     0.0320 ca         1 VO2       0.350900
     11 C11          0.2960     3.7590     0.0070 ca         1 VO2      -0.130300
     12 C12         -0.7790     2.8570    -0.0140 ca         1 VO2      -0.139000
     13 C13         -0.5430     1.5020    -0.0120 ca         1 VO2       0.056100
     14 O14         -1.4710     0.5290    -0.0250 os         1 VO2      -0.347100
     15 C15         -2.8450     0.9090    -0.0220 c3         1 VO2       0.214900
     16 C16         -3.6560    -0.3490    -0.0120 ca         1 VO2      -0.103300
     17 C17         -4.0570    -0.9380    -1.2070 ca         1 VO2      -0.083000
     18 C18         -4.7800    -2.1230    -1.2000 ca         1 VO2      -0.114000
     19 C19         -5.1070    -2.7300     0.0060 ca         1 VO2      -0.094000
     20 C20         -4.7090    -2.1480     1.2030 ca         1 VO2      -0.114000
     21 C21         -3.9870    -0.9630     1.1920 ca         1 VO2      -0.083000
     22 C28          0.0590     5.2380    -0.0030 c3         1 VO2      -0.037800
     23 H1           5.7000    -1.5660     0.0600 h4         1 VO2       0.154000
     24 H2           3.6760    -4.4800    -0.8850 hc         1 VO2       0.046367
     25 H3           5.1570    -4.1390     0.0120 hc         1 VO2       0.046367
     26 H4           3.6590    -4.5030     0.8720 hc         1 VO2       0.046367
     27 H5           0.2920    -0.9230    -0.0130 hn         1 VO2       0.533000
     28 H6           2.4370     3.8680     0.0530 h4         1 VO2       0.024100
     29 H7          -1.7910     3.2440    -0.0300 ha         1 VO2       0.123000
     30 H8          -3.0600     1.5190     0.8620 h1         1 VO2       0.042700
     31 H9          -3.0680     1.5100    -0.9090 h1         1 VO2       0.042700
     32 H10         -3.8080    -0.4650    -2.1500 ha         1 VO2       0.115000
     33 H11         -5.0880    -2.5720    -2.1350 ha         1 VO2       0.116000
     34 H12         -5.6730    -3.6520     0.0140 ha         1 VO2       0.115000
     35 H13         -4.9620    -2.6160     2.1460 ha         1 VO2       0.116000
     36 H14         -3.6840    -0.5090     2.1290 ha         1 VO2       0.115000
     37 H15         -0.3870     5.5600    -0.9460 hc         1 VO2       0.044033
     38 H16         -0.6240     5.5360     0.7940 hc         1 VO2       0.044033
     39 H17          0.9890     5.7890     0.1290 hc         1 VO2       0.044033
@<TRIPOS>BOND
     1     1     2 2   
     2     1     5 1   
     3     1     7 1   
     4     2     3 1   
     5     3     4 2   
     6     3     6 1   
     7     4     5 1   
     8     4    23 1   
     9     6    24 1   
    10     6    25 1   
    11     6    26 1   
    12     7     8 1   
    13     7    27 1   
    14     8     9 ar  
    15     8    13 ar  
    16     9    10 ar  
    17    10    11 ar  
    18    10    28 1   
    19    11    12 ar  
    20    11    22 1   
    21    12    13 ar  
    22    12    29 1   
    23    13    14 1   
    24    14    15 1   
    25    15    16 1   
    26    15    30 1   
    27    15    31 1   
    28    16    17 ar  
    29    16    21 ar  
    30    17    18 ar  
    31    17    32 1   
    32    18    19 ar  
    33    18    33 1   
    34    19    20 ar  
    35    19    34 1   
    36    20    21 ar  
    37    20    35 1   
    38    21    36 1   
    39    22    37 1   
    40    22    38 1   
    41    22    39 1   
@<TRIPOS>SUBSTRUCTURE
     1 VO2         1 TEMP              0 ****  ****    0 ROOT
