@<TRIPOS>MOLECULE
VO2
   39    41     1     0     0
SMALL
No Charge or Current Charge


@<TRIPOS>ATOM
      1 C1           2.4740    -0.7450     0.0060 cc         1 VO2       0.683300
      2 N2           2.3510    -2.0500     0.0060 nd         1 VO2      -0.731000
      3 C3           3.6100    -2.6290     0.0080 cd         1 VO2       0.328300
      4 C4           4.6640    -1.7450     0.0090 cc         1 VO2      -0.324000
      5 S5           4.1020    -0.0980     0.0090 ss         1 VO2       0.027600
      6 C6           3.7320    -4.1250     0.0080 c3         1 VO2      -0.118400
      7 N7           1.3030    -0.0740     0.0050 nu         1 VO2      -0.885800
      8 C8           0.9200     1.2480     0.0040 ca         1 VO2       0.595900
      9 N9           1.9200     2.1400     0.0040 nb         1 VO2      -0.719000
     10 C10          1.5870     3.4500     0.0040 ca         1 VO2       0.350900
     11 C11          0.2530     3.9130     0.0040 ca         1 VO2      -0.130300
     12 C12         -0.7940     2.9730     0.0030 ca         1 VO2      -0.139000
     13 C13         -0.4580     1.6010     0.0030 ca         1 VO2       0.056100
     14 O14         -1.4230     0.6010     0.0020 os         1 VO2      -0.347100
     15 C15         -2.8300     0.8930     0.0010 c3         1 VO2       0.214900
     16 C16         -3.5910    -0.4260     0.0010 ca         1 VO2      -0.103300
     17 C17         -3.9430    -1.0440    -1.2160 ca         1 VO2      -0.083000
     18 C18         -4.6450    -2.2620    -1.2150 ca         1 VO2      -0.114000
     19 C19         -4.9980    -2.8700     0.0010 ca         1 VO2      -0.094000
     20 C20         -4.6480    -2.2600     1.2180 ca         1 VO2      -0.114000
     21 C21         -3.9460    -1.0420     1.2180 ca         1 VO2      -0.083000
     22 C28         -0.0530     5.4040     0.0010 c3         1 VO2      -0.037800
     23 H1           5.7250    -1.9560     0.0100 h4         1 VO2       0.154000
     24 H2           3.2560    -4.5560    -0.8800 hc         1 VO2       0.046367
     25 H3           4.7830    -4.4370     0.0100 hc         1 VO2       0.046367
     26 H4           3.2520    -4.5570     0.8940 hc         1 VO2       0.046367
     27 H5           0.5250    -0.7180     0.0040 hn         1 VO2       0.533000
     28 H6           2.4180     4.1550     0.0020 h4         1 VO2       0.024100
     29 H7          -1.8260     3.3140     0.0000 ha         1 VO2       0.123000
     30 H8          -3.1060     1.4750     0.8900 h1         1 VO2       0.042700
     31 H9          -3.1050     1.4740    -0.8890 h1         1 VO2       0.042700
     32 H10         -3.6710    -0.5800    -2.1620 ha         1 VO2       0.115000
     33 H11         -4.9140    -2.7340    -2.1570 ha         1 VO2       0.116000
     34 H12         -5.5410    -3.8130     0.0010 ha         1 VO2       0.115000
     35 H13         -4.9190    -2.7310     2.1600 ha         1 VO2       0.116000
     36 H14         -3.6760    -0.5770     2.1640 ha         1 VO2       0.115000
     37 H15         -0.3630     5.7370    -0.9970 hc         1 VO2       0.044033
     38 H16         -0.8630     5.6430     0.7010 hc         1 VO2       0.044033
     39 H17          0.8210     5.9970     0.2950 hc         1 VO2       0.044033
@<TRIPOS>BOND
     1     1     2 2   
     2     1     5 1   
     3     1     7 1   
     4     2     3 1   
     5     3     4 2   
     6     3     6 1   
     7     4     5 1   
     8     4    23 1   
     9     6    24 1   
    10     6    25 1   
    11     6    26 1   
    12     7     8 1   
    13     7    27 1   
    14     8     9 ar  
    15     8    13 ar  
    16     9    10 ar  
    17    10    11 ar  
    18    10    28 1   
    19    11    12 ar  
    20    11    22 1   
    21    12    13 ar  
    22    12    29 1   
    23    13    14 1   
    24    14    15 1   
    25    15    16 1   
    26    15    30 1   
    27    15    31 1   
    28    16    17 ar  
    29    16    21 ar  
    30    17    18 ar  
    31    17    32 1   
    32    18    19 ar  
    33    18    33 1   
    34    19    20 ar  
    35    19    34 1   
    36    20    21 ar  
    37    20    35 1   
    38    21    36 1   
    39    22    37 1   
    40    22    38 1   
    41    22    39 1   
@<TRIPOS>SUBSTRUCTURE
     1 VO2         1 TEMP              0 ****  ****    0 ROOT
