@<TRIPOS>MOLECULE
VO5
   27    27     1     0     0
SMALL
No Charge or Current Charge


@<TRIPOS>ATOM
      1 C7          27.8700    16.8260    39.3120 ca         1 VO5       0.219100
      2 C8          26.1910    18.3630    40.2800 c3         1 VO5       0.156900
      3 O1          30.5600    18.0130    40.8030 o          1 VO5      -0.544000
      4 C1          29.0690    14.9910    42.6590 c3         1 VO5       0.203800
      5 C5          27.4690    15.6270    37.2200 ca         1 VO5      -0.023000
      6 C6          27.0380    16.5220    38.2120 ca         1 VO5      -0.213000
      7 C4          28.7320    15.0290    37.3200 ca         1 VO5      -0.166000
      8 C3          29.5680    15.3220    38.4090 ca         1 VO5       0.023000
      9 C2          29.1390    16.2220    39.4080 ca         1 VO5      -0.341500
     10 S           30.2380    16.5840    40.7780 sy         1 VO5       1.192600
     11 O           31.2900    15.5650    40.8490 o          1 VO5      -0.544000
     12 N           29.2390    16.3450    42.0960 n7         1 VO5      -0.878300
     13 C           28.2820    14.0610    41.7150 c3         1 VO5      -0.129100
     14 O2          27.4580    17.6790    40.3160 os         1 VO5      -0.370100
     15 H1          26.0770    18.9980    41.1670 h1         1 VO5       0.050367
     16 H2          26.1190    19.0050    39.3930 h1         1 VO5       0.050367
     17 H3          25.3600    17.6470    40.2670 h1         1 VO5       0.050367
     18 H4          28.5040    15.0600    43.5990 h1         1 VO5       0.069700
     19 H5          30.0370    14.5330    42.9080 h1         1 VO5       0.069700
     20 H6          26.8230    15.3970    36.3750 ha         1 VO5       0.116000
     21 H7          26.0520    16.9650    38.1100 ha         1 VO5       0.119000
     22 H8          29.0670    14.3350    36.5520 ha         1 VO5       0.123000
     23 H9          30.5480    14.8490    38.4670 ha         1 VO5       0.145000
     24 H10         28.3540    16.6500    41.6900 hn         1 VO5       0.487000
     25 H11         28.0510    13.1200    42.2270 hc         1 VO5       0.044033
     26 H12         27.3340    14.5210    41.4080 hc         1 VO5       0.044033
     27 H13         28.8630    13.8140    40.8190 hc         1 VO5       0.044033
@<TRIPOS>BOND
     1     1     6 ar  
     2     1     9 ar  
     3     1    14 1   
     4     2    14 1   
     5     2    15 1   
     6     2    16 1   
     7     2    17 1   
     8     3    10 2   
     9     4    12 1   
    10     4    13 1   
    11     4    18 1   
    12     4    19 1   
    13     5     6 ar  
    14     5     7 ar  
    15     5    20 1   
    16     6    21 1   
    17     7     8 ar  
    18     7    22 1   
    19     8     9 ar  
    20     8    23 1   
    21     9    10 1   
    22    10    11 2   
    23    10    12 1   
    24    12    24 1   
    25    13    25 1   
    26    13    26 1   
    27    13    27 1   
@<TRIPOS>SUBSTRUCTURE
     1 VO5         1 TEMP              0 ****  ****    0 ROOT
