@<TRIPOS>MOLECULE
VO5
   27    27     1     0     0
SMALL
abcg2


@<TRIPOS>ATOM
      1 C7          27.9170    16.7960    39.2530 ca         1 VO5       0.219100
      2 C8          26.1700    18.1120    40.2310 c3         1 VO5       0.156900
      3 O1          30.4480    18.0620    40.7870 o          1 VO5      -0.544000
      4 C1          29.1010    14.8850    42.5010 c3         1 VO5       0.203800
      5 C5          27.6320    15.5860    37.1870 ca         1 VO5      -0.023000
      6 C6          27.1330    16.4540    38.1530 ca         1 VO5      -0.213000
      7 C4          28.9070    15.0450    37.3000 ca         1 VO5      -0.166000
      8 C3          29.6920    15.3770    38.3960 ca         1 VO5       0.023000
      9 C2          29.2080    16.2470    39.3650 ca         1 VO5      -0.341500
     10 S           30.2270    16.6340    40.7660 sy         1 VO5       1.192600
     11 O           31.3690    15.7520    40.7150 o          1 VO5      -0.544000
     12 N           29.4020    16.2790    42.1280 n7         1 VO5      -0.878300
     13 C           27.8290    14.3250    41.8770 c3         1 VO5      -0.129100
     14 O2          27.5120    17.6140    40.2480 os         1 VO5      -0.370100
     15 H1          26.0680    18.7030    41.1370 h1         1 VO5       0.050367
     16 H2          26.0020    18.7420    39.3560 h1         1 VO5       0.050367
     17 H3          25.4540    17.2880    40.2400 h1         1 VO5       0.050367
     18 H4          29.0240    14.8740    43.5890 h1         1 VO5       0.069700
     19 H5          29.9680    14.2840    42.2340 h1         1 VO5       0.069700
     20 H6          27.0080    15.3320    36.3400 ha         1 VO5       0.116000
     21 H7          26.1370    16.8570    38.0480 ha         1 VO5       0.119000
     22 H8          29.2860    14.3680    36.5470 ha         1 VO5       0.123000
     23 H9          30.6810    14.9600    38.5140 ha         1 VO5       0.145000
     24 H10         28.6370    16.9310    42.2660 hn         1 VO5       0.487000
     25 H11         27.6300    13.3310    42.2830 hc         1 VO5       0.044033
     26 H12         26.9730    14.9630    42.1050 hc         1 VO5       0.044033
     27 H13         27.9170    14.2400    40.7940 hc         1 VO5       0.044033
@<TRIPOS>BOND
     1     1     6 ar  
     2     1     9 ar  
     3     1    14 1   
     4     2    14 1   
     5     2    15 1   
     6     2    16 1   
     7     2    17 1   
     8     3    10 2   
     9     4    12 1   
    10     4    13 1   
    11     4    18 1   
    12     4    19 1   
    13     5     6 ar  
    14     5     7 ar  
    15     5    20 1   
    16     6    21 1   
    17     7     8 ar  
    18     7    22 1   
    19     8     9 ar  
    20     8    23 1   
    21     9    10 1   
    22    10    11 2   
    23    10    12 1   
    24    12    24 1   
    25    13    25 1   
    26    13    26 1   
    27    13    27 1   
@<TRIPOS>SUBSTRUCTURE
     1 VO5         1 TEMP              0 ****  ****    0 ROOT
