@<TRIPOS>MOLECULE
VO7
   67    70     1     0     0
SMALL
bcc


@<TRIPOS>ATOM
      1 C19        -21.1710   -17.3960   -87.3360 ca         1 VO7      -0.093000
      2 C20        -21.2460   -17.5550   -88.7090 ca         1 VO7       0.130600
      3 C17        -19.0510   -17.5680   -82.3200 c2         1 VO7      -0.155000
      4 C12        -24.1410   -18.4870   -82.6980 c3         1 VO7       0.142600
      5 C16        -20.1530   -17.7290   -83.0440 ce         1 VO7      -0.237200
      6 C15        -20.1010   -18.0590   -84.4940 c          1 VO7       0.670300
      7 N14        -21.3130   -18.1500   -85.0690 ns         1 VO7      -0.496100
      8 C01        -22.3550   -20.0740   -91.0890 c3         1 VO7       0.131700
      9 C03        -21.7300   -18.7870   -89.1850 ca         1 VO7       0.119100
     10 C04        -22.1110   -19.7820   -88.3020 ca         1 VO7      -0.257000
     11 C05        -21.9840   -19.6430   -86.9070 ca         1 VO7       0.174600
     12 C07        -22.5550   -21.9880   -86.6890 c3         1 VO7       0.196100
     13 C08        -23.0300   -20.4900   -84.8140 c3         1 VO7       0.218800
     14 C09        -24.2140   -19.5050   -84.8780 c3         1 VO7       0.126800
     15 C11        -24.7850   -17.1760   -84.5920 c3         1 VO7       0.142600
     16 C13        -21.4940   -18.4130   -86.4440 ca         1 VO7       0.000600
     17 C22        -20.0880   -15.5070   -89.5360 ca         1 VO7       0.918900
     18 C24        -18.6310   -14.2430   -88.3130 ca         1 VO7       0.609100
     19 C25        -17.9470   -14.0670   -87.0450 cc         1 VO7      -0.263000
     20 C26        -17.8630   -15.0580   -86.0920 cd         1 VO7      -0.026100
     21 C28        -16.7750   -13.3200   -85.2310 ca         1 VO7      -0.066200
     22 C29        -17.2490   -12.9280   -86.5030 ca         1 VO7      -0.060800
     23 C30        -17.0000   -11.6140   -86.9210 ca         1 VO7      -0.088000
     24 C31        -16.2930   -10.7630   -86.0930 ca         1 VO7      -0.152000
     25 C32        -15.8220   -11.1860   -84.8420 ca         1 VO7      -0.119000
     26 C33        -16.0600   -12.4700   -84.3920 ca         1 VO7      -0.139000
     27 C34        -18.4620   -13.3980   -89.4100 ca         1 VO7      -0.429600
     28 C35        -19.1850   -13.7120   -90.5490 ca         1 VO7       0.475200
     29 N06        -22.3070   -20.7030   -86.0680 nh         1 VO7      -0.664000
     30 N10        -23.9670   -18.2790   -84.1240 n3         1 VO7      -0.732600
     31 N21        -20.9230   -16.5740   -89.6490 nu         1 VO7      -0.731300
     32 N23        -19.4480   -15.2970   -88.3980 nb         1 VO7      -0.790000
     33 N27        -17.1640   -14.6160   -85.0250 na         1 VO7      -0.164400
     34 N36        -20.0000   -14.7470   -90.6380 nb         1 VO7      -0.779000
     35 O02        -21.8130   -18.8980   -90.5260 os         1 VO7      -0.330900
     36 O18        -19.0440   -18.2220   -85.0940 o          1 VO7      -0.618100
     37 H1         -20.8200   -16.4610   -86.9290 ha         1 VO7       0.170000
     38 H2         -18.0640   -17.6710   -82.7530 ha         1 VO7       0.120000
     39 H3         -19.1020   -17.3260   -81.2680 ha         1 VO7       0.120000
     40 H5         -23.8770   -17.5800   -82.1550 h1         1 VO7       0.038033
     41 H6         -25.1750   -18.7560   -82.4380 h1         1 VO7       0.038033
     42 H7         -23.4900   -19.2860   -82.3420 h1         1 VO7       0.038033
     43 H8         -21.1280   -17.6160   -82.5830 ha         1 VO7       0.125000
     44 H10        -22.1770   -18.0390   -84.5130 hn         1 VO7       0.365500
     45 H11        -22.3290   -19.9400   -92.1670 h1         1 VO7       0.039367
     46 H12        -21.7680   -20.9590   -90.8290 h1         1 VO7       0.039367
     47 H13        -23.3910   -20.2340   -90.7780 h1         1 VO7       0.039367
     48 H14        -22.5180   -20.6980   -88.7030 ha         1 VO7       0.133000
     49 H15        -22.5670   -22.7570   -85.9190 h1         1 VO7       0.033367
     50 H16        -23.5060   -22.0450   -87.2330 h1         1 VO7       0.033367
     51 H17        -21.7540   -22.2420   -87.3830 h1         1 VO7       0.033367
     52 H18        -23.4010   -21.4670   -84.5110 h1         1 VO7       0.052700
     53 H19        -22.3410   -20.1890   -84.0230 h1         1 VO7       0.052700
     54 H20        -24.4060   -19.2370   -85.9190 h1         1 VO7       0.045700
     55 H21        -25.1280   -19.9980   -84.5160 h1         1 VO7       0.045700
     56 H22        -24.5370   -16.2720   -84.0360 h1         1 VO7       0.038033
     57 H23        -24.5880   -16.9880   -85.6470 h1         1 VO7       0.038033
     58 H24        -25.8620   -17.3610   -84.4710 h1         1 VO7       0.038033
     59 H25        -18.2510   -16.0640   -86.1200 h4         1 VO7       0.205000
     60 H26        -17.3610   -11.2460   -87.8720 ha         1 VO7       0.132000
     61 H27        -16.1020    -9.7480   -86.4150 ha         1 VO7       0.127000
     62 H28        -15.2700   -10.4950   -84.2180 ha         1 VO7       0.127000
     63 H29        -15.7100   -12.8030   -83.4240 ha         1 VO7       0.130000
     64 H30        -17.7940   -12.5520   -89.4050 ha         1 VO7       0.151000
     65 H31        -19.0950   -13.0920   -91.4350 h4         1 VO7       0.015100
     66 H33        -21.3180   -16.6880   -90.5690 hn         1 VO7       0.466800
     67 H34        -16.9610   -15.1640   -84.2040 hn         1 VO7       0.303700
@<TRIPOS>BOND
     1     1     2 ar  
     2     1    16 ar  
     3     1    37 1   
     4     2     9 ar  
     5     2    31 1   
     6     3     5 2   
     7     3    38 1   
     8     3    39 1   
     9     4    30 1   
    10     4    40 1   
    11     4    41 1   
    12     4    42 1   
    13     5     6 1   
    14     5    43 1   
    15     6     7 1   
    16     6    36 2   
    17     7    16 1   
    18     7    44 1   
    19     8    35 1   
    20     8    45 1   
    21     8    46 1   
    22     8    47 1   
    23     9    10 ar  
    24     9    35 1   
    25    10    11 ar  
    26    10    48 1   
    27    11    16 ar  
    28    11    29 1   
    29    12    29 1   
    30    12    49 1   
    31    12    50 1   
    32    12    51 1   
    33    13    14 1   
    34    13    29 1   
    35    13    52 1   
    36    13    53 1   
    37    14    30 1   
    38    14    54 1   
    39    14    55 1   
    40    15    30 1   
    41    15    56 1   
    42    15    57 1   
    43    15    58 1   
    44    17    31 1   
    45    17    32 ar  
    46    17    34 ar  
    47    18    19 1   
    48    18    27 ar  
    49    18    32 ar  
    50    19    20 2   
    51    19    22 1   
    52    20    33 1   
    53    20    59 1   
    54    21    22 ar  
    55    21    26 ar  
    56    21    33 1   
    57    22    23 ar  
    58    23    24 ar  
    59    23    60 1   
    60    24    25 ar  
    61    24    61 1   
    62    25    26 ar  
    63    25    62 1   
    64    26    63 1   
    65    27    28 ar  
    66    27    64 1   
    67    28    34 ar  
    68    28    65 1   
    69    31    66 1   
    70    33    67 1   
@<TRIPOS>SUBSTRUCTURE
     1 VO7         1 TEMP              0 ****  ****    0 ROOT
