@<TRIPOS>MOLECULE
VO7
   67    70     1     0     0
SMALL
No Charge or Current Charge


@<TRIPOS>ATOM
      1 C19        -20.4370   -18.0400   -87.4980 ca         1 VO7      -0.075000
      2 C20        -20.7490   -17.9360   -88.8700 ca         1 VO7       0.269000
      3 C17        -19.1630   -18.4960   -82.0280 c2         1 VO7      -0.255000
      4 C12        -24.1440   -19.7140   -82.7160 c3         1 VO7       0.142600
      5 C16        -20.0660   -18.8120   -82.9900 ce         1 VO7      -0.287200
      6 C15        -19.8710   -18.5690   -84.4520 c          1 VO7       0.603300
      7 N14        -20.9690   -18.9050   -85.2260 ns         1 VO7      -0.170000
      8 C01        -23.2560   -19.2580   -91.3380 c3         1 VO7       0.154900
      9 C03        -21.8620   -18.6560   -89.3770 ca         1 VO7       0.119100
     10 C04        -22.6520   -19.4380   -88.5080 ca         1 VO7      -0.239000
     11 C05        -22.3410   -19.5210   -87.1460 ca         1 VO7       0.313000
     12 C07        -22.6340   -21.5810   -85.7440 c3         1 VO7       0.196100
     13 C08        -24.4540   -19.8130   -85.8200 c3         1 VO7       0.218800
     14 C09        -24.3690   -18.5510   -84.9070 c3         1 VO7       0.126800
     15 C11        -23.3980   -17.3880   -82.9610 c3         1 VO7       0.142600
     16 C13        -21.2270   -18.8230   -86.6270 ca         1 VO7      -0.092000
     17 C22        -19.0880   -16.1040   -89.6670 ca         1 VO7       0.392900
     18 C24        -18.0000   -14.5170   -88.4090 ca         1 VO7       0.280800
     19 C25        -17.7180   -13.9170   -87.1020 cc         1 VO7      -0.263000
     20 C26        -17.8150   -14.6510   -85.9230 cd         1 VO7      -0.076100
     21 C28        -17.3610   -12.5210   -85.3780 ca         1 VO7      -0.066200
     22 C29        -17.4660   -12.5490   -86.7430 ca         1 VO7      -0.060800
     23 C30        -17.3710   -11.3810   -87.5170 ca         1 VO7      -0.070000
     24 C31        -17.1290   -10.1630   -86.8470 ca         1 VO7      -0.134000
     25 C32        -17.0010   -10.1350   -85.4380 ca         1 VO7      -0.101000
     26 C33        -17.1250   -11.3240   -84.6880 ca         1 VO7      -0.121000
     27 C34        -17.3610   -14.0620   -89.5760 ca         1 VO7      -0.281000
     28 C35        -17.6700   -14.7020   -90.7860 ca         1 VO7       0.146900
     29 N06        -23.1520   -20.3240   -86.3210 nh         1 VO7      -0.802400
     30 N10        -23.5940   -18.6900   -83.6360 n3         1 VO7      -0.732600
     31 N21        -19.9830   -17.1620   -89.7680 nu         1 VO7      -0.924900
     32 N23        -18.8620   -15.5520   -88.4630 nb         1 VO7      -0.264000
     33 N27        -17.5510   -13.7840   -84.8340 na         1 VO7      -0.214700
     34 N36        -18.5410   -15.7270   -90.8340 nb         1 VO7      -0.253000
     35 O02        -22.1470   -18.5680   -90.7340 os         1 VO7      -0.354100
     36 O18        -18.8230   -18.1160   -84.8990 o          1 VO7      -0.618100
     37 H1         -19.5790   -17.5110   -87.1120 ha         1 VO7       0.152000
     38 H2         -18.2020   -18.0370   -82.2670 ha         1 VO7       0.170000
     39 H3         -19.3590   -18.6890   -80.9720 ha         1 VO7       0.170000
     40 H5         -23.5280   -19.7920   -81.8110 h1         1 VO7       0.038033
     41 H6         -25.1680   -19.4580   -82.4120 h1         1 VO7       0.038033
     42 H7         -24.1620   -20.7040   -83.1890 h1         1 VO7       0.038033
     43 H8         -21.0180   -19.2630   -82.7130 ha         1 VO7       0.175000
     44 H10        -21.7630   -19.2490   -84.6960 hn         1 VO7       0.199000
     45 H11        -23.2940   -19.0470   -92.4140 h1         1 VO7       0.039367
     46 H12        -23.1590   -20.3430   -91.2070 h1         1 VO7       0.039367
     47 H13        -24.2060   -18.9320   -90.8940 h1         1 VO7       0.039367
     48 H14        -23.5080   -19.9960   -88.8720 ha         1 VO7       0.115000
     49 H15        -22.3760   -21.4420   -84.6860 h1         1 VO7       0.033367
     50 H16        -23.3840   -22.3790   -85.8250 h1         1 VO7       0.033367
     51 H17        -21.7330   -21.9070   -86.2800 h1         1 VO7       0.033367
     52 H18        -25.0880   -19.5620   -86.6810 h1         1 VO7       0.052700
     53 H19        -24.9840   -20.6060   -85.2760 h1         1 VO7       0.052700
     54 H20        -23.9300   -17.7460   -85.5110 h1         1 VO7       0.045700
     55 H21        -25.3960   -18.2390   -84.6740 h1         1 VO7       0.045700
     56 H22        -22.7680   -17.5010   -82.0680 h1         1 VO7       0.038033
     57 H23        -22.9030   -16.6740   -83.6320 h1         1 VO7       0.038033
     58 H24        -24.3600   -16.9580   -82.6500 h1         1 VO7       0.038033
     59 H25        -18.0360   -15.7070   -85.7770 h4         1 VO7       0.255000
     60 H26        -17.4910   -11.4010   -88.5960 ha         1 VO7       0.114000
     61 H27        -17.0470    -9.2400   -87.4170 ha         1 VO7       0.109000
     62 H28        -16.8190    -9.1910   -84.9300 ha         1 VO7       0.109000
     63 H29        -17.0440   -11.3080   -83.6040 ha         1 VO7       0.112000
     64 H30        -16.6330   -13.2590   -89.5480 ha         1 VO7       0.133000
     65 H31        -17.2090   -14.3990   -91.7240 h4         1 VO7       0.015100
     66 H33        -20.2320   -17.3570   -90.7390 hn         1 VO7       0.522000
     67 H34        -17.5370   -14.0320   -83.8500 hn         1 VO7       0.354000
@<TRIPOS>BOND
     1     1     2 ar  
     2     1    16 ar  
     3     1    37 1   
     4     2     9 ar  
     5     2    31 1   
     6     3     5 2   
     7     3    38 1   
     8     3    39 1   
     9     4    30 1   
    10     4    40 1   
    11     4    41 1   
    12     4    42 1   
    13     5     6 1   
    14     5    43 1   
    15     6     7 1   
    16     6    36 2   
    17     7    16 1   
    18     7    44 1   
    19     8    35 1   
    20     8    45 1   
    21     8    46 1   
    22     8    47 1   
    23     9    10 ar  
    24     9    35 1   
    25    10    11 ar  
    26    10    48 1   
    27    11    16 ar  
    28    11    29 1   
    29    12    29 1   
    30    12    49 1   
    31    12    50 1   
    32    12    51 1   
    33    13    14 1   
    34    13    29 1   
    35    13    52 1   
    36    13    53 1   
    37    14    30 1   
    38    14    54 1   
    39    14    55 1   
    40    15    30 1   
    41    15    56 1   
    42    15    57 1   
    43    15    58 1   
    44    17    31 1   
    45    17    32 ar  
    46    17    34 ar  
    47    18    19 1   
    48    18    27 ar  
    49    18    32 ar  
    50    19    20 2   
    51    19    22 1   
    52    20    33 1   
    53    20    59 1   
    54    21    22 ar  
    55    21    26 ar  
    56    21    33 1   
    57    22    23 ar  
    58    23    24 ar  
    59    23    60 1   
    60    24    25 ar  
    61    24    61 1   
    62    25    26 ar  
    63    25    62 1   
    64    26    63 1   
    65    27    28 ar  
    66    27    64 1   
    67    28    34 ar  
    68    28    65 1   
    69    31    66 1   
    70    33    67 1   
@<TRIPOS>SUBSTRUCTURE
     1 VO7         1 TEMP              0 ****  ****    0 ROOT
