@<TRIPOS>MOLECULE
VO8
   59    63     1     0     0
SMALL
abcg2


@<TRIPOS>ATOM
      1 C10         48.0500     6.1190    18.1950 ca         1 VO8      -0.139000
      2 C1          43.6010    -3.2890    19.9540 c3         1 VO8      -0.082100
      3 C2          45.0110    -2.6970    19.9600 c3         1 VO8      -0.146400
      4 O1          45.8890    -2.5520    22.1600 o          1 VO8      -0.551100
      5 N1          44.8820    -0.6770    21.4470 n          1 VO8      -0.276600
      6 C4          44.2070     0.1380    20.5170 c          1 VO8       0.607000
      7 O2          43.8400    -0.1530    19.4010 o          1 VO8      -0.559000
      8 N2          44.0290     1.3440    21.1240 n          1 VO8      -0.288000
      9 C5          43.3320     2.4380    20.4870 c3         1 VO8       0.124000
     10 C6          44.1740     3.1850    19.4770 c3         1 VO8       0.135600
     11 O3          45.3150     3.6950    20.1410 os         1 VO8      -0.325100
     12 C7          46.1660     4.4660    19.4440 ca         1 VO8       0.135100
     13 C8          46.0190     4.8170    18.1050 ca         1 VO8      -0.194000
     14 C9          46.9580     5.6390    17.4910 ca         1 VO8      -0.067000
     15 C11         48.2040     5.7720    19.5320 ca         1 VO8      -0.075000
     16 C12         47.2770     4.9520    20.1430 ca         1 VO8       0.053100
     17 O4          47.4800     4.5590    21.4410 os         1 VO8      -0.234200
     18 C13         46.8380     5.2000    22.4480 ca         1 VO8       0.162100
     19 C14         45.9160     6.1960    22.2670 ca         1 VO8      -0.194000
     20 C15         45.3000     6.7970    23.3830 ca         1 VO8      -0.069000
     21 C16         45.6080     6.4090    24.6550 ca         1 VO8      -0.136000
     22 C17         46.5690     5.3920    24.8630 ca         1 VO8      -0.021000
     23 C18         46.9150     4.9730    26.1640 ca         1 VO8      -0.072000
     24 C19         47.8520     3.9850    26.3480 ca         1 VO8      -0.006000
     25 C20         48.1920     3.5670    27.6690 cg         1 VO8       0.322000
     26 N3          48.4740     3.2210    28.7320 n1         1 VO8      -0.452000
     27 C21         48.4860     3.3710    25.2430 ca         1 VO8      -0.098000
     28 C22         48.1620     3.7610    23.9760 ca         1 VO8      -0.064000
     29 C23         47.2010     4.7730    23.7540 ca         1 VO8      -0.041000
     30 C24         44.5620     1.3350    22.3990 ca         1 VO8       0.020600
     31 C25         44.5950     2.3250    23.3610 ca         1 VO8      -0.109000
     32 C26         45.1790     2.0110    24.5820 ca         1 VO8      -0.096000
     33 C27         45.7120     0.7510    24.8160 ca         1 VO8      -0.121000
     34 C28         45.6810    -0.2440    23.8410 ca         1 VO8      -0.073000
     35 C29         45.0960     0.0650    22.6250 ca         1 VO8      -0.005400
     36 H10         48.7770     6.7590    17.7140 ha         1 VO8       0.123000
     37 H22         43.4350    -3.8230    19.0190 hc         1 VO8       0.044367
     38 H1          43.4690    -3.9990    20.7700 hc         1 VO8       0.044367
     39 H3          45.7400    -3.5040    19.8870 hc         1 VO8       0.078700
     40 H5          42.9780     3.1140    21.2650 h1         1 VO8       0.072200
     41 H4          42.4480     2.0540    19.9780 h1         1 VO8       0.072200
     42 H7          43.5650     3.9940    19.0590 h1         1 VO8       0.052200
     43 H6          44.4680     2.5260    18.6560 h1         1 VO8       0.052200
     44 H8          45.1790     4.4590    17.5250 ha         1 VO8       0.122000
     45 H9          46.8250     5.8990    16.4500 ha         1 VO8       0.118000
     46 H11         49.0510     6.1300    20.1040 ha         1 VO8       0.132000
     47 H12         45.6510     6.5380    21.2750 ha         1 VO8       0.126000
     48 H13         44.5710     7.5780    23.2140 ha         1 VO8       0.114000
     49 H14         45.1320     6.8710    25.5100 ha         1 VO8       0.119000
     50 H15         46.4340     5.4390    27.0150 ha         1 VO8       0.126000
     51 H16         49.2210     2.5940    25.4070 ha         1 VO8       0.128000
     52 H17         48.6480     3.2810    23.1390 ha         1 VO8       0.138000
     53 H18         44.1910     3.3110    23.1770 ha         1 VO8       0.126000
     54 H19         45.2240     2.7650    25.3570 ha         1 VO8       0.120000
     55 H20         46.1660     0.5300    25.7730 ha         1 VO8       0.120000
     56 H21         46.1010    -1.2140    24.0470 ha         1 VO8       0.148000
     57 H2          42.8330    -2.5230    20.0390 hc         1 VO8       0.044367
     58 H23         45.1510    -2.0440    19.1030 hc         1 VO8       0.078700
     59 C3          45.3100    -1.9950    21.2580 c          1 VO8       0.633100
@<TRIPOS>BOND
     1     1    14 ar  
     2     1    15 ar  
     3     1    36 1   
     4     2     3 1   
     5     2    37 1   
     6     2    38 1   
     7     2    57 1   
     8     3    39 1   
     9     3    58 1   
    10     3    59 1   
    11     4    59 2   
    12     5     6 1   
    13     5    35 1   
    14     5    59 1   
    15     6     7 2   
    16     6     8 1   
    17     8     9 1   
    18     8    30 1   
    19     9    10 1   
    20     9    40 1   
    21     9    41 1   
    22    10    11 1   
    23    10    42 1   
    24    10    43 1   
    25    11    12 1   
    26    12    13 ar  
    27    12    16 ar  
    28    13    14 ar  
    29    13    44 1   
    30    14    45 1   
    31    15    16 ar  
    32    15    46 1   
    33    16    17 1   
    34    17    18 1   
    35    18    19 ar  
    36    18    29 ar  
    37    19    20 ar  
    38    19    47 1   
    39    20    21 ar  
    40    20    48 1   
    41    21    22 ar  
    42    21    49 1   
    43    22    23 ar  
    44    22    29 ar  
    45    23    24 ar  
    46    23    50 1   
    47    24    25 1   
    48    24    27 ar  
    49    25    26 3   
    50    27    28 ar  
    51    27    51 1   
    52    28    29 ar  
    53    28    52 1   
    54    30    31 ar  
    55    30    35 ar  
    56    31    32 ar  
    57    31    53 1   
    58    32    33 ar  
    59    32    54 1   
    60    33    34 ar  
    61    33    55 1   
    62    34    35 ar  
    63    34    56 1   
@<TRIPOS>SUBSTRUCTURE
     1 VO8         1 TEMP              0 ****  ****    0 ROOT
