@<TRIPOS>MOLECULE
VO8
   59    63     1     0     0
SMALL
No Charge or Current Charge


@<TRIPOS>ATOM
      1 C10         47.3790     7.0300    17.9330 ca         1 VO8      -0.139000
      2 C1          45.7000    -2.9420    21.8340 c3         1 VO8      -0.082100
      3 C2          46.4080    -1.7030    22.4310 c3         1 VO8      -0.146400
      4 O1          45.2040    -1.1320    24.4020 o          1 VO8      -0.551100
      5 N1          44.8770     0.3410    22.6730 n          1 VO8      -0.276600
      6 C4          44.7270     0.6280    21.3030 c          1 VO8       0.607000
      7 O2          45.0430    -0.0660    20.3480 o          1 VO8      -0.559000
      8 N2          44.0620     1.8550    21.2180 n          1 VO8      -0.288000
      9 C5          43.4060     2.3290    19.9790 c3         1 VO8       0.124000
     10 C6          44.3090     3.1700    19.0550 c3         1 VO8       0.135600
     11 O3          44.9560     4.1900    19.8350 os         1 VO8      -0.325100
     12 C7          45.7480     5.1260    19.2140 ca         1 VO8       0.135100
     13 C8          45.2260     5.9200    18.1740 ca         1 VO8      -0.194000
     14 C9          46.0400     6.8730    17.5370 ca         1 VO8      -0.067000
     15 C11         47.9070     6.2390    18.9690 ca         1 VO8      -0.075000
     16 C12         47.0920     5.2950    19.6180 ca         1 VO8       0.053100
     17 O4          47.6440     4.5040    20.6000 os         1 VO8      -0.234200
     18 C13         47.2060     4.5070    21.9100 ca         1 VO8       0.162100
     19 C14         46.5460     5.6330    22.4440 ca         1 VO8      -0.194000
     20 C15         46.1590     5.6520    23.7930 ca         1 VO8      -0.069000
     21 C16         46.4430     4.5540    24.6190 ca         1 VO8      -0.136000
     22 C17         47.1010     3.4250    24.0990 ca         1 VO8      -0.021000
     23 C18         47.3880     2.3320    24.9380 ca         1 VO8      -0.072000
     24 C19         48.0500     1.2000    24.4300 ca         1 VO8      -0.006000
     25 C20         48.3520     0.0910    25.2940 cg         1 VO8       0.322000
     26 N3          48.6070    -0.8110    25.9900 n1         1 VO8      -0.452000
     27 C21         48.4230     1.1620    23.0740 ca         1 VO8      -0.098000
     28 C22         48.1390     2.2510    22.2310 ca         1 VO8      -0.064000
     29 C23         47.4810     3.3930    22.7370 ca         1 VO8      -0.041000
     30 C24         43.7200     2.3110    22.5100 ca         1 VO8       0.020600
     31 C25         43.2360     3.5620    22.9150 ca         1 VO8      -0.109000
     32 C26         43.1430     3.8190    24.2980 ca         1 VO8      -0.096000
     33 C27         43.6000     2.8620    25.2340 ca         1 VO8      -0.121000
     34 C28         44.1860     1.6540    24.8000 ca         1 VO8      -0.073000
     35 C29         44.2570     1.4090    23.4160 ca         1 VO8      -0.005400
     36 H10         48.0100     7.7640    17.4350 ha         1 VO8       0.123000
     37 H22         46.4100    -3.5480    21.2580 hc         1 VO8       0.044367
     38 H1          45.2830    -3.5710    22.6310 hc         1 VO8       0.044367
     39 H3          47.1980    -2.0580    23.1020 hc         1 VO8       0.078700
     40 H5          42.5300     2.9300    20.2520 h1         1 VO8       0.072200
     41 H4          43.0350     1.4630    19.4170 h1         1 VO8       0.072200
     42 H7          43.6950     3.6040    18.2570 h1         1 VO8       0.052200
     43 H6          45.0600     2.5170    18.5930 h1         1 VO8       0.052200
     44 H8          44.1890     5.8090    17.8670 ha         1 VO8       0.122000
     45 H9          45.6340     7.4880    16.7360 ha         1 VO8       0.118000
     46 H11         48.9450     6.3550    19.2700 ha         1 VO8       0.132000
     47 H12         46.3410     6.5000    21.8220 ha         1 VO8       0.126000
     48 H13         45.6500     6.5220    24.2020 ha         1 VO8       0.114000
     49 H14         46.1460     4.5820    25.6650 ha         1 VO8       0.119000
     50 H15         47.0980     2.3650    25.9870 ha         1 VO8       0.126000
     51 H16         48.9400     0.2940    22.6700 ha         1 VO8       0.128000
     52 H17         48.4400     2.2020    21.1870 ha         1 VO8       0.138000
     53 H18         42.9300     4.3090    22.1880 ha         1 VO8       0.126000
     54 H19         42.7390     4.7670    24.6450 ha         1 VO8       0.120000
     55 H20         43.5360     3.0780    26.2990 ha         1 VO8       0.120000
     56 H21         44.5900     0.9590    25.5300 ha         1 VO8       0.148000
     57 H2          44.8810    -2.6480    21.1670 hc         1 VO8       0.044367
     58 H23         46.8600    -1.1360    21.6120 hc         1 VO8       0.078700
     59 C3          45.4370    -0.8230    23.2410 c          1 VO8       0.633100
@<TRIPOS>BOND
     1     1    14 ar  
     2     1    15 ar  
     3     1    36 1   
     4     2     3 1   
     5     2    37 1   
     6     2    38 1   
     7     2    57 1   
     8     3    39 1   
     9     3    58 1   
    10     3    59 1   
    11     4    59 2   
    12     5     6 1   
    13     5    35 1   
    14     5    59 1   
    15     6     7 2   
    16     6     8 1   
    17     8     9 1   
    18     8    30 1   
    19     9    10 1   
    20     9    40 1   
    21     9    41 1   
    22    10    11 1   
    23    10    42 1   
    24    10    43 1   
    25    11    12 1   
    26    12    13 ar  
    27    12    16 ar  
    28    13    14 ar  
    29    13    44 1   
    30    14    45 1   
    31    15    16 ar  
    32    15    46 1   
    33    16    17 1   
    34    17    18 1   
    35    18    19 ar  
    36    18    29 ar  
    37    19    20 ar  
    38    19    47 1   
    39    20    21 ar  
    40    20    48 1   
    41    21    22 ar  
    42    21    49 1   
    43    22    23 ar  
    44    22    29 ar  
    45    23    24 ar  
    46    23    50 1   
    47    24    25 1   
    48    24    27 ar  
    49    25    26 3   
    50    27    28 ar  
    51    27    51 1   
    52    28    29 ar  
    53    28    52 1   
    54    30    31 ar  
    55    30    35 ar  
    56    31    32 ar  
    57    31    53 1   
    58    32    33 ar  
    59    32    54 1   
    60    33    34 ar  
    61    33    55 1   
    62    34    35 ar  
    63    34    56 1   
@<TRIPOS>SUBSTRUCTURE
     1 VO8         1 TEMP              0 ****  ****    0 ROOT
