@<TRIPOS>MOLECULE
VO9
   27    28     1     0     0
SMALL
abcg2


@<TRIPOS>ATOM
      1 C7          44.3250    30.0520    27.1890 cx         1 VO9       0.031700
      2 C8          43.3300    30.9950    26.5790 cx         1 VO9      -0.127900
      3 C9          42.8590    29.9010    27.4910 cx         1 VO9      -0.127900
      4 O1          44.5080    29.6920    31.7700 oh         1 VO9      -0.670000
      5 C1          46.9440    33.3620    26.6310 cc         1 VO9      -0.072000
      6 C5          45.1930    29.7800    29.5040 c3         1 VO9       0.105000
      7 C6          44.4660    30.5300    30.6130 c3         1 VO9       0.141600
      8 C4          46.1600    31.4680    28.0770 c          1 VO9       0.641700
      9 C3          46.9050    32.7320    24.4070 cd         1 VO9      -0.233000
     10 C2          46.4030    32.1030    26.7560 cd         1 VO9      -0.277600
     11 O           46.8500    31.8350    29.0350 o          1 VO9      -0.600100
     12 N           45.2110    30.5070    28.2320 n          1 VO9      -0.389800
     13 S           46.2480    31.3620    25.1950 ss         1 VO9       0.223000
     14 C           47.2160    33.7290    25.2920 cc         1 VO9      -0.142000
     15 H1          44.7510    29.2930    26.5410 h1         1 VO9       0.083700
     16 H2          43.1500    30.9110    25.5170 hc         1 VO9       0.081450
     17 H3          43.3220    32.0050    26.9670 hc         1 VO9       0.081450
     18 H4          42.5100    30.1840    28.4730 hc         1 VO9       0.081450
     19 H5          42.3610    29.0430    27.0620 hc         1 VO9       0.081450
     20 H6          44.1220    30.1750    32.5100 ho         1 VO9       0.446000
     21 H7          47.1410    33.9890    27.4870 ha         1 VO9       0.151000
     22 H8          44.7040    28.8230    29.3290 h1         1 VO9       0.067700
     23 H9          46.2190    29.5930    29.8210 h1         1 VO9       0.067700
     24 H10         44.9650    31.4820    30.8020 h1         1 VO9       0.032700
     25 H11         43.4310    30.7320    30.3220 h1         1 VO9       0.032700
     26 H12         47.0170    32.7310    23.3340 h4         1 VO9       0.151000
     27 H13         47.6270    34.6840    24.9980 ha         1 VO9       0.139000
@<TRIPOS>BOND
     1     1     2 1   
     2     1     3 1   
     3     1    12 1   
     4     1    15 1   
     5     2     3 1   
     6     2    16 1   
     7     2    17 1   
     8     3    18 1   
     9     3    19 1   
    10     4     7 1   
    11     4    20 1   
    12     5    10 2   
    13     5    14 1   
    14     5    21 1   
    15     6     7 1   
    16     6    12 1   
    17     6    22 1   
    18     6    23 1   
    19     7    24 1   
    20     7    25 1   
    21     8    10 1   
    22     8    11 2   
    23     8    12 1   
    24     9    13 1   
    25     9    14 2   
    26     9    26 1   
    27    10    13 1   
    28    14    27 1   
@<TRIPOS>SUBSTRUCTURE
     1 VO9         1 TEMP              0 ****  ****    0 ROOT
