@<TRIPOS>MOLECULE
VO9
   27    28     1     0     0
SMALL
No Charge or Current Charge


@<TRIPOS>ATOM
      1 C7          44.3300    30.0710    27.2120 cx         1 VO9       0.031700
      2 C8          43.0800    30.8220    26.8080 cx         1 VO9      -0.127900
      3 C9          42.9600    29.4880    27.4970 cx         1 VO9      -0.127900
      4 O1          44.2580    29.8110    31.8040 oh         1 VO9      -0.670000
      5 C1          47.4090    33.2220    26.5320 cc         1 VO9      -0.072000
      6 C5          45.2020    29.8760    29.5430 c3         1 VO9       0.105000
      7 C6          44.3360    30.5980    30.6050 c3         1 VO9       0.141600
      8 C4          46.2470    31.5920    28.0450 c          1 VO9       0.641700
      9 C3          46.7080    33.0560    24.3170 cd         1 VO9      -0.233000
     10 C2          46.4760    32.2210    26.7010 cd         1 VO9      -0.277600
     11 O           46.9240    31.9540    29.0010 o          1 VO9      -0.600100
     12 N           45.2540    30.5830    28.2320 n          1 VO9      -0.389800
     13 S           45.7230    31.8340    25.1340 ss         1 VO9       0.223000
     14 C           47.5350    33.6890    25.2020 cc         1 VO9      -0.142000
     15 H1          44.9160    29.5560    26.4500 h1         1 VO9       0.083700
     16 H2          42.8310    30.8680    25.7510 hc         1 VO9       0.081450
     17 H3          42.8180    31.7110    27.3770 hc         1 VO9       0.081450
     18 H4          42.5800    29.4840    28.5140 hc         1 VO9       0.081450
     19 H5          42.6440    28.6380    26.8980 hc         1 VO9       0.081450
     20 H6          43.7130    30.3200    32.4470 ho         1 VO9       0.446000
     21 H7          48.0140    33.6340    27.3360 ha         1 VO9       0.151000
     22 H8          44.8070    28.8630    29.3930 h1         1 VO9       0.067700
     23 H9          46.2200    29.7550    29.9350 h1         1 VO9       0.067700
     24 H10         44.7810    31.5780    30.8210 h1         1 VO9       0.032700
     25 H11         43.3310    30.7740    30.2010 h1         1 VO9       0.032700
     26 H12         46.6070    33.2190    23.2500 h4         1 VO9       0.151000
     27 H13         48.2330    34.4760    24.9280 ha         1 VO9       0.139000
@<TRIPOS>BOND
     1     1     2 1   
     2     1     3 1   
     3     1    12 1   
     4     1    15 1   
     5     2     3 1   
     6     2    16 1   
     7     2    17 1   
     8     3    18 1   
     9     3    19 1   
    10     4     7 1   
    11     4    20 1   
    12     5    10 2   
    13     5    14 1   
    14     5    21 1   
    15     6     7 1   
    16     6    12 1   
    17     6    22 1   
    18     6    23 1   
    19     7    24 1   
    20     7    25 1   
    21     8    10 1   
    22     8    11 2   
    23     8    12 1   
    24     9    13 1   
    25     9    14 2   
    26     9    26 1   
    27    10    13 1   
    28    14    27 1   
@<TRIPOS>SUBSTRUCTURE
     1 VO9         1 TEMP              0 ****  ****    0 ROOT
