@<TRIPOS>MOLECULE
VOB
   35    35     1     0     0
SMALL
No Charge or Current Charge


@<TRIPOS>ATOM
      1 C10         22.8740   -18.9240     5.8600 ca         1 VOB      -0.196500
      2 C13         25.2890   -18.1460     7.0640 ca         1 VOB      -0.001500
      3 C01         25.6400   -19.0760    -1.2600 c3         1 VOB      -0.108100
      4 C02         25.4610   -18.2480     0.0280 c3         1 VOB       0.196800
      5 C04         23.4320   -19.5180     0.8440 c3         1 VOB       0.196800
      6 C05         24.2290   -20.4740     1.7620 c3         1 VOB      -0.108100
      7 C06         23.8030   -17.1040     1.5230 c3         1 VOB       0.201800
      8 C07         24.4410   -17.2290     2.9330 c3         1 VOB       0.119600
      9 C09         23.8230   -18.2130     5.1130 ca         1 VOB       0.199100
     10 C11         23.1190   -19.2510     7.2050 ca         1 VOB      -0.001500
     11 C12         24.3320   -18.8640     7.8190 ca         1 VOB      -0.231200
     12 C14         25.0350   -17.8240     5.7190 ca         1 VOB      -0.196500
     13 N03         24.0630   -18.2010     0.5350 n3         1 VOB      -0.773600
     14 N15         24.6000   -19.2090     9.2510 no         1 VOB       0.702200
     15 O08         23.5220   -17.9270     3.7980 os         1 VOB      -0.336100
     16 O16         23.7340   -19.8380     9.8730 o          1 VOB      -0.407000
     17 O17         25.6750   -18.8500     9.7480 o          1 VOB      -0.407000
     18 H1          21.9410   -19.2250     5.3920 ha         1 VOB       0.135000
     19 H2          26.2320   -17.8340     7.5100 ha         1 VOB       0.150500
     20 H3          26.6710   -18.9910    -1.6210 hc         1 VOB       0.037700
     21 H4          25.4300   -20.1380    -1.0870 hc         1 VOB       0.037700
     22 H5          24.9710   -18.7120    -2.0480 hc         1 VOB       0.037700
     23 H6          26.1360   -18.6430     0.7990 h1         1 VOB       0.035200
     24 H7          25.8000   -17.2270    -0.1940 h1         1 VOB       0.035200
     25 H8          22.4460   -19.3500     1.2990 h1         1 VOB       0.035200
     26 H9          23.2420   -20.0520    -0.0970 h1         1 VOB       0.035200
     27 H10         23.6400   -21.3790     1.9530 hc         1 VOB       0.037700
     28 H11         25.1680   -20.7850     1.2900 hc         1 VOB       0.037700
     29 H12         24.4660   -20.0220     2.7280 hc         1 VOB       0.037700
     30 H13         24.1640   -16.1590     1.0950 h1         1 VOB       0.062700
     31 H14         22.7200   -16.9700     1.6520 h1         1 VOB       0.062700
     32 H15         25.4050   -17.7490     2.8650 h1         1 VOB       0.043700
     33 H16         24.6220   -16.2200     3.3240 h1         1 VOB       0.043700
     34 H17         22.3620   -19.8050     7.7590 ha         1 VOB       0.150500
     35 H18         25.7890   -17.2720     5.1670 ha         1 VOB       0.135000
@<TRIPOS>BOND
     1     1     9 ar  
     2     1    10 ar  
     3     1    18 1   
     4     2    11 ar  
     5     2    12 ar  
     6     2    19 1   
     7     3     4 1   
     8     3    20 1   
     9     3    21 1   
    10     3    22 1   
    11     4    13 1   
    12     4    23 1   
    13     4    24 1   
    14     5     6 1   
    15     5    13 1   
    16     5    25 1   
    17     5    26 1   
    18     6    27 1   
    19     6    28 1   
    20     6    29 1   
    21     7     8 1   
    22     7    13 1   
    23     7    30 1   
    24     7    31 1   
    25     8    15 1   
    26     8    32 1   
    27     8    33 1   
    28     9    12 ar  
    29     9    15 1   
    30    10    11 ar  
    31    10    34 1   
    32    11    14 1   
    33    12    35 1   
    34    14    16 1   
    35    14    17 1   
@<TRIPOS>SUBSTRUCTURE
     1 VOB         1 TEMP              0 ****  ****    0 ROOT
