@<TRIPOS>MOLECULE
VOB
   35    35     1     0     0
SMALL
abcg2


@<TRIPOS>ATOM
      1 C10         23.0630   -19.1130     5.7200 ca         1 VOB      -0.196500
      2 C13         25.2290   -17.9790     7.0370 ca         1 VOB      -0.001500
      3 C01         25.5940   -19.1180    -1.1050 c3         1 VOB      -0.108100
      4 C02         25.4840   -18.3590     0.2090 c3         1 VOB       0.196800
      5 C04         23.3730   -19.4260     0.8860 c3         1 VOB       0.196800
      6 C05         24.0570   -20.5170     1.7110 c3         1 VOB      -0.108100
      7 C06         23.8940   -17.1000     1.5580 c3         1 VOB       0.201800
      8 C07         24.4610   -17.1730     2.9700 c3         1 VOB       0.119600
      9 C09         23.9200   -18.2420     5.0350 ca         1 VOB       0.199100
     10 C11         23.2820   -19.4110     7.0450 ca         1 VOB      -0.001500
     11 C12         24.3680   -18.8390     7.7030 ca         1 VOB      -0.231200
     12 C14         25.0100   -17.6800     5.7050 ca         1 VOB      -0.196500
     13 N03         24.1150   -18.1990     0.6520 n3         1 VOB      -0.773600
     14 N15         24.5970   -19.1450     9.0950 no         1 VOB       0.702200
     15 O08         23.6200   -18.0090     3.7600 os         1 VOB      -0.336100
     16 O16         23.8360   -19.9090     9.6460 o          1 VOB      -0.407000
     17 O17         25.5390   -18.6230     9.6490 o          1 VOB      -0.407000
     18 H1          22.2210   -19.5490     5.1980 ha         1 VOB       0.135000
     19 H2          26.0730   -17.5350     7.5440 ha         1 VOB       0.150500
     20 H3          26.6310   -19.1330    -1.4410 hc         1 VOB       0.037700
     21 H4          25.2660   -20.1540    -1.0150 hc         1 VOB       0.037700
     22 H5          24.9930   -18.6400    -1.8800 hc         1 VOB       0.037700
     23 H6          26.1270   -18.8470     0.9580 h1         1 VOB       0.035200
     24 H7          25.9030   -17.3590     0.0670 h1         1 VOB       0.035200
     25 H8          22.4270   -19.1540     1.3580 h1         1 VOB       0.035200
     26 H9          23.1040   -19.8640    -0.0810 h1         1 VOB       0.035200
     27 H10         23.3730   -21.3570     1.8380 hc         1 VOB       0.037700
     28 H11         24.9490   -20.9000     1.2140 hc         1 VOB       0.037700
     29 H12         24.3470   -20.1720     2.7020 hc         1 VOB       0.037700
     30 H13         24.3310   -16.2040     1.1040 h1         1 VOB       0.062700
     31 H14         22.8200   -16.9040     1.6300 h1         1 VOB       0.062700
     32 H15         25.4850   -17.5600     2.9660 h1         1 VOB       0.043700
     33 H16         24.4830   -16.1650     3.3990 h1         1 VOB       0.043700
     34 H17         22.6090   -20.0830     7.5560 ha         1 VOB       0.150500
     35 H18         25.6930   -17.0060     5.2080 ha         1 VOB       0.135000
@<TRIPOS>BOND
     1     1     9 ar  
     2     1    10 ar  
     3     1    18 1   
     4     2    11 ar  
     5     2    12 ar  
     6     2    19 1   
     7     3     4 1   
     8     3    20 1   
     9     3    21 1   
    10     3    22 1   
    11     4    13 1   
    12     4    23 1   
    13     4    24 1   
    14     5     6 1   
    15     5    13 1   
    16     5    25 1   
    17     5    26 1   
    18     6    27 1   
    19     6    28 1   
    20     6    29 1   
    21     7     8 1   
    22     7    13 1   
    23     7    30 1   
    24     7    31 1   
    25     8    15 1   
    26     8    32 1   
    27     8    33 1   
    28     9    12 ar  
    29     9    15 1   
    30    10    11 ar  
    31    10    34 1   
    32    11    14 1   
    33    12    35 1   
    34    14    16 1   
    35    14    17 1   
@<TRIPOS>SUBSTRUCTURE
     1 VOB         1 TEMP              0 ****  ****    0 ROOT
