@<TRIPOS>MOLECULE
VOC
   38    41     1     0     0
SMALL
No Charge or Current Charge


@<TRIPOS>ATOM
      1 CAP         19.1480     9.8850   -11.5790 c6         1 VOC       0.100000
      2 CAO         18.2700     9.8370   -10.3010 c6         1 VOC      -0.108700
      3 CAN         17.8580    11.2400    -9.9620 cc         1 VOC       0.103300
      4 OAQ         17.3670    11.6240    -8.7600 os         1 VOC      -0.262000
      5 CAR         17.1380    12.9640    -8.9330 cc         1 VOC       0.442900
      6 NAS         17.4500    13.4260   -10.1440 nd         1 VOC      -0.655000
      7 CAM         17.9130    12.3070   -10.8050 cd         1 VOC       0.220300
      8 CAL         18.4210    12.1950   -12.2290 c6         1 VOC       0.078700
      9 NAK         18.5490    10.7560   -12.6420 n          1 VOC      -0.426800
     10 CAJ         18.5440    10.4170   -14.0180 c          1 VOC       0.638300
     11 OAT         18.6980    11.2920   -14.8600 o          1 VOC      -0.569100
     12 CAG         18.2940     8.9880   -14.3760 cc         1 VOC      -0.172300
     13 NAH         17.7850     7.9540   -13.5870 na         1 VOC       0.015500
     14 NAI         17.5900     6.7690   -14.3010 nc         1 VOC      -0.265400
     15 CAC         17.9950     7.1180   -15.5910 ca         1 VOC      -0.072000
     16 CAD         18.4150     8.4270   -15.6910 ca         1 VOC      -0.087000
     17 CAE         18.8760     8.9790   -16.8980 ca         1 VOC      -0.060000
     18 CAF         18.8920     8.1540   -18.0380 ca         1 VOC      -0.117000
     19 CAA         18.4580     6.8140   -17.9520 ca         1 VOC      -0.101000
     20 CAB         18.0040     6.2790   -16.7260 ca         1 VOC      -0.047300
     21 CAU         17.5470     4.8250   -16.6470 c3         1 VOC      -0.025100
     22 CAV         18.6770     3.8810   -16.1960 c3         1 VOC      -0.085100
     23 H1          19.3780     8.8740   -11.9350 h1         1 VOC       0.063700
     24 H2          20.1210    10.3200   -11.3060 h1         1 VOC       0.063700
     25 H3          17.3820     9.2160   -10.4780 hc         1 VOC       0.070200
     26 H4          18.8270     9.3730    -9.4760 hc         1 VOC       0.070200
     27 H5          16.7350    13.5280    -8.0990 h5         1 VOC       0.087100
     28 H6          19.3980    12.6900   -12.3170 h1         1 VOC       0.082200
     29 H7          17.7240    12.7150   -12.9010 h1         1 VOC       0.082200
     30 H8          17.5270     8.0090   -12.6070 hn         1 VOC       0.375000
     31 H9          19.2190    10.0080   -16.9630 ha         1 VOC       0.129000
     32 H10         19.2430     8.5510   -18.9880 ha         1 VOC       0.114000
     33 H11         18.4800     6.1880   -18.8420 ha         1 VOC       0.112000
     34 H12         17.1770     4.4920   -17.6240 hc         1 VOC       0.049700
     35 H13         16.7010     4.7270   -15.9560 hc         1 VOC       0.049700
     36 H14         18.3180     2.8460   -16.1550 hc         1 VOC       0.035367
     37 H15         19.5200     3.9270   -16.8960 hc         1 VOC       0.035367
     38 H16         19.0390     4.1600   -15.1990 hc         1 VOC       0.035367
@<TRIPOS>BOND
     1     1     2 1   
     2     1     9 1   
     3     1    23 1   
     4     1    24 1   
     5     2     3 1   
     6     2    25 1   
     7     2    26 1   
     8     3     4 1   
     9     3     7 2   
    10     4     5 1   
    11     5     6 2   
    12     5    27 1   
    13     6     7 1   
    14     7     8 1   
    15     8     9 1   
    16     8    28 1   
    17     8    29 1   
    18     9    10 1   
    19    10    11 2   
    20    10    12 1   
    21    12    13 1   
    22    12    16 2   
    23    13    14 1   
    24    13    30 1   
    25    14    15 2   
    26    15    16 ar  
    27    15    20 ar  
    28    16    17 ar  
    29    17    18 ar  
    30    17    31 1   
    31    18    19 ar  
    32    18    32 1   
    33    19    20 ar  
    34    19    33 1   
    35    20    21 1   
    36    21    22 1   
    37    21    34 1   
    38    21    35 1   
    39    22    36 1   
    40    22    37 1   
    41    22    38 1   
@<TRIPOS>SUBSTRUCTURE
     1 VOC         1 TEMP              0 ****  ****    0 ROOT
