@<TRIPOS>MOLECULE
VOC
   38    41     1     0     0
SMALL
abcg2


@<TRIPOS>ATOM
      1 CAP         19.1020     9.8370   -11.9180 c6         1 VOC       0.100000
      2 CAO         18.4180     9.6490   -10.5550 c6         1 VOC      -0.108700
      3 CAN         18.0710    11.0070   -10.0860 cc         1 VOC       0.103300
      4 OAQ         17.7330    11.3360    -8.7980 os         1 VOC      -0.262000
      5 CAR         17.5310    12.6800    -8.8330 cc         1 VOC       0.442900
      6 NAS         17.7070    13.2100   -10.0000 nd         1 VOC      -0.655000
      7 CAM         18.0530    12.1380   -10.8180 cd         1 VOC       0.220300
      8 CAL         18.3380    12.1800   -12.2800 c6         1 VOC       0.078700
      9 NAK         18.3830    10.7960   -12.7690 n          1 VOC      -0.426800
     10 CAJ         18.0000    10.5600   -14.0470 c          1 VOC       0.638300
     11 OAT         17.7250    11.4660   -14.8370 o          1 VOC      -0.569100
     12 CAG         17.8890     9.1560   -14.5040 cc         1 VOC      -0.172300
     13 NAH         17.2480     8.1670   -13.8400 na         1 VOC       0.015500
     14 NAI         17.1960     6.9980   -14.4860 nc         1 VOC      -0.265400
     15 CAC         17.8570     7.2270   -15.6420 ca         1 VOC      -0.072000
     16 CAD         18.3050     8.5850   -15.7130 ca         1 VOC      -0.087000
     17 CAE         19.0140     9.0490   -16.8430 ca         1 VOC      -0.060000
     18 CAF         19.2450     8.1540   -17.8550 ca         1 VOC      -0.117000
     19 CAA         18.7940     6.8070   -17.7790 ca         1 VOC      -0.101000
     20 CAB         18.1060     6.3090   -16.6970 ca         1 VOC      -0.047300
     21 CAU         17.6700     4.8740   -16.6000 c3         1 VOC      -0.025100
     22 CAV         18.5890     4.0350   -15.7020 c3         1 VOC      -0.085100
     23 H1          19.1980     8.8910   -12.4390 h1         1 VOC       0.063700
     24 H2          20.1090    10.2320   -11.7560 h1         1 VOC       0.063700
     25 H3          17.5280     9.0190   -10.6450 hc         1 VOC       0.070200
     26 H4          19.1090     9.1500    -9.8710 hc         1 VOC       0.070200
     27 H5          17.2510    13.1580    -7.9090 h5         1 VOC       0.087100
     28 H6          19.2860    12.6910   -12.4880 h1         1 VOC       0.082200
     29 H7          17.5560    12.7100   -12.8200 h1         1 VOC       0.082200
     30 H8          16.7740     8.2540   -12.9520 hn         1 VOC       0.375000
     31 H9          19.3540    10.0740   -16.9040 ha         1 VOC       0.129000
     32 H10         19.7800     8.4720   -18.7410 ha         1 VOC       0.114000
     33 H11         19.0030     6.1450   -18.6120 ha         1 VOC       0.112000
     34 H12         17.6480     4.4420   -17.6030 hc         1 VOC       0.049700
     35 H13         16.6510     4.8310   -16.2080 hc         1 VOC       0.049700
     36 H14         18.2380     3.0020   -15.6520 hc         1 VOC       0.035367
     37 H15         19.6090     4.0310   -16.0900 hc         1 VOC       0.035367
     38 H16         18.6140     4.4330   -14.6860 hc         1 VOC       0.035367
@<TRIPOS>BOND
     1     1     2 1   
     2     1     9 1   
     3     1    23 1   
     4     1    24 1   
     5     2     3 1   
     6     2    25 1   
     7     2    26 1   
     8     3     4 1   
     9     3     7 2   
    10     4     5 1   
    11     5     6 2   
    12     5    27 1   
    13     6     7 1   
    14     7     8 1   
    15     8     9 1   
    16     8    28 1   
    17     8    29 1   
    18     9    10 1   
    19    10    11 2   
    20    10    12 1   
    21    12    13 1   
    22    12    16 2   
    23    13    14 1   
    24    13    30 1   
    25    14    15 2   
    26    15    16 ar  
    27    15    20 ar  
    28    16    17 ar  
    29    17    18 ar  
    30    17    31 1   
    31    18    19 ar  
    32    18    32 1   
    33    19    20 ar  
    34    19    33 1   
    35    20    21 1   
    36    21    22 1   
    37    21    34 1   
    38    21    35 1   
    39    22    36 1   
    40    22    37 1   
    41    22    38 1   
@<TRIPOS>SUBSTRUCTURE
     1 VOC         1 TEMP              0 ****  ****    0 ROOT
