@<TRIPOS>MOLECULE
VOD
   22    22     1     0     0
SMALL
abcg2


@<TRIPOS>ATOM
      1 C2           4.9670     0.8160     0.6210 c2         1 VOD      -0.351000
      2 C3           4.1530    -0.2260     0.4550 ce         1 VOD      -0.127200
      3 C4           2.7530    -0.1880     0.0170 ca         1 VOD      -0.100800
      4 C5           2.0170    -1.3730    -0.0050 ca         1 VOD      -0.097500
      5 C6           0.6880    -1.3850    -0.4020 ca         1 VOD      -0.105000
      6 C7           0.0550    -0.2140    -0.8040 ca         1 VOD       0.009700
      7 C8           0.7870     0.9730    -0.7830 ca         1 VOD      -0.105000
      8 C9           2.1120     0.9870    -0.3860 ca         1 VOD      -0.097500
      9 C10         -1.3810    -0.2210    -1.2070 c3         1 VOD      -0.314100
     10 S11         -2.4640     0.1310     0.2050 s6         1 VOD       1.318600
     11 O12         -2.1920    -0.9340     1.1880 o          1 VOD      -0.689867
     12 O13         -2.0750     1.4730     0.6760 o          1 VOD      -0.689867
     13 O11         -3.8330     0.0820    -0.3450 o          1 VOD      -0.689867
     14 H21C         5.9860     0.6720     0.9530 ha         1 VOD       0.153000
     15 H22C         4.6600     1.8390     0.4430 ha         1 VOD       0.153000
     16 H3           4.5390    -1.2180     0.6670 ha         1 VOD       0.155000
     17 H5           2.4900    -2.3000     0.2960 ha         1 VOD       0.094500
     18 H9           2.6510     1.9260    -0.3920 ha         1 VOD       0.094500
     19 H6           0.1420    -2.3200    -0.4120 ha         1 VOD       0.118500
     20 H8           0.3170     1.8970    -1.0940 ha         1 VOD       0.118500
     21 H101        -1.5930     0.5350    -1.9650 h1         1 VOD       0.075200
     22 H102        -1.6810    -1.1940    -1.6010 h1         1 VOD       0.075200
@<TRIPOS>BOND
     1     1     2 2   
     2     1    14 1   
     3     1    15 1   
     4     2     3 1   
     5     2    16 1   
     6     3     4 ar  
     7     3     8 ar  
     8     4     5 ar  
     9     4    17 1   
    10     5     6 ar  
    11     5    19 1   
    12     6     7 ar  
    13     6     9 1   
    14     7     8 ar  
    15     7    20 1   
    16     8    18 1   
    17     9    10 1   
    18     9    21 1   
    19     9    22 1   
    20    10    11 1   
    21    10    12 1   
    22    10    13 1   
@<TRIPOS>SUBSTRUCTURE
     1 VOD         1 TEMP              0 ****  ****    0 ROOT
