@<TRIPOS>MOLECULE
VOD
   22    22     1     0     0
SMALL
No Charge or Current Charge


@<TRIPOS>ATOM
      1 C2           5.0550     0.8160     0.5560 c2         1 VOD      -0.351000
      2 C3           4.2170    -0.2390     0.4510 ce         1 VOD      -0.127200
      3 C4           2.7830    -0.1920     0.0360 ca         1 VOD      -0.100800
      4 C5           2.0330    -1.3850     0.0390 ca         1 VOD      -0.097500
      5 C6           0.6800    -1.3840    -0.3450 ca         1 VOD      -0.105000
      6 C7           0.0530    -0.1880    -0.7350 ca         1 VOD       0.009700
      7 C8           0.7970     1.0050    -0.7460 ca         1 VOD      -0.105000
      8 C9           2.1500     1.0060    -0.3620 ca         1 VOD      -0.097500
      9 C10         -1.4070    -0.1890    -1.1680 c3         1 VOD      -0.314100
     10 S11         -2.5920     0.0920     0.1690 s6         1 VOD       1.318600
     11 O12         -2.3510    -1.0200     1.1000 o          1 VOD      -0.689867
     12 O13         -2.2320     1.4190     0.6920 o          1 VOD      -0.689867
     13 O11         -3.8940     0.0420    -0.5130 o          1 VOD      -0.689867
     14 H21C         6.0910     0.6810     0.8690 ha         1 VOD       0.153000
     15 H22C         4.7510     1.8400     0.3410 ha         1 VOD       0.153000
     16 H3           4.5900    -1.2390     0.6860 ha         1 VOD       0.155000
     17 H5           2.4970    -2.3210     0.3390 ha         1 VOD       0.094500
     18 H9           2.6940     1.9450    -0.3830 ha         1 VOD       0.094500
     19 H6           0.1190    -2.3150    -0.3370 ha         1 VOD       0.118500
     20 H8           0.3260     1.9360    -1.0510 ha         1 VOD       0.118500
     21 H101        -1.5880     0.6000    -1.9050 h1         1 VOD       0.075200
     22 H102        -1.6740    -1.1540    -1.6110 h1         1 VOD       0.075200
@<TRIPOS>BOND
     1     1     2 2   
     2     1    14 1   
     3     1    15 1   
     4     2     3 1   
     5     2    16 1   
     6     3     4 ar  
     7     3     8 ar  
     8     4     5 ar  
     9     4    17 1   
    10     5     6 ar  
    11     5    19 1   
    12     6     7 ar  
    13     6     9 1   
    14     7     8 ar  
    15     7    20 1   
    16     8    18 1   
    17     9    10 1   
    18     9    21 1   
    19     9    22 1   
    20    10    11 1   
    21    10    12 1   
    22    10    13 1   
@<TRIPOS>SUBSTRUCTURE
     1 VOD         1 TEMP              0 ****  ****    0 ROOT
