@<TRIPOS>MOLECULE
VOE
   26    26     1     0     0
SMALL
abcg2


@<TRIPOS>ATOM
      1 C7           1.0500    14.2250   -37.2180 ca         1 VOE      -0.113000
      2 C8          -0.1610    14.5590   -37.8160 ca         1 VOE      -0.110500
      3 C9          -1.3340    14.5530   -37.0660 ca         1 VOE      -0.107000
      4 C1          -2.9200    12.8210   -34.3250 c3         1 VOE      -0.065400
      5 C5          -0.1010    13.8790   -35.1260 ca         1 VOE      -0.107000
      6 C6           1.0750    13.8850   -35.8680 ca         1 VOE      -0.110500
      7 C4          -1.3240    14.2130   -35.7140 ca         1 VOE      -0.076300
      8 C3          -2.5510    15.2930   -33.8180 c3         1 VOE       0.152800
      9 C2          -2.6040    14.2090   -34.9060 c3         1 VOE      -0.015400
     10 N           -3.8580    15.4740   -33.1730 n8         1 VOE      -1.004200
     11 H1           1.9650    14.2270   -37.7980 ha         1 VOE       0.112000
     12 H2          -0.1940    14.8230   -38.8660 ha         1 VOE       0.111000
     13 H3          -2.2740    14.8120   -37.5390 ha         1 VOE       0.110500
     14 H4          -3.8130    12.9090   -33.7040 hc         1 VOE       0.048200
     15 H5          -2.1060    12.5220   -33.6580 hc         1 VOE       0.048200
     16 H6          -0.0650    13.6070   -34.0780 ha         1 VOE       0.110500
     17 H7           2.0120    13.6220   -35.3930 ha         1 VOE       0.111000
     18 H8          -1.8310    14.9970   -33.0500 h1         1 VOE       0.032700
     19 H9          -2.1730    16.2180   -34.2720 h1         1 VOE       0.032700
     20 H10         -3.4190    14.4780   -35.5890 hc         1 VOE       0.047700
     21 H11         -3.7830    16.1720   -32.4410 hn         1 VOE       0.393000
     22 H12         -4.5170    15.8460   -33.8500 hn         1 VOE       0.393000
     23 H14         -3.3950    10.7930   -34.9400 hc         1 VOE       0.032033
     24 H15         -3.9480    12.0350   -36.0680 hc         1 VOE       0.032033
     25 H16         -2.2390    11.6060   -35.9980 hc         1 VOE       0.032033
     26 C           -3.1360    11.7520   -35.3930 c3         1 VOE      -0.090100
@<TRIPOS>BOND
     1     1     2 ar  
     2     1     6 ar  
     3     1    11 1   
     4     2     3 ar  
     5     2    12 1   
     6     3     7 ar  
     7     3    13 1   
     8     4     9 1   
     9     4    14 1   
    10     4    15 1   
    11     4    26 1   
    12     5     6 ar  
    13     5     7 ar  
    14     5    16 1   
    15     6    17 1   
    16     7     9 1   
    17     8     9 1   
    18     8    10 1   
    19     8    18 1   
    20     8    19 1   
    21     9    20 1   
    22    10    21 1   
    23    10    22 1   
    24    23    26 1   
    25    24    26 1   
    26    25    26 1   
@<TRIPOS>SUBSTRUCTURE
     1 VOE         1 TEMP              0 ****  ****    0 ROOT
