@<TRIPOS>MOLECULE
VOE
   26    26     1     0     0
SMALL
No Charge or Current Charge


@<TRIPOS>ATOM
      1 C7           1.0510    14.2090   -37.2350 ca         1 VOE      -0.113000
      2 C8          -0.1770    14.5140   -37.8460 ca         1 VOE      -0.110500
      3 C9          -1.3600    14.5180   -37.0860 ca         1 VOE      -0.107000
      4 C1          -2.9600    12.8020   -34.3470 c3         1 VOE      -0.065400
      5 C5          -0.0880    13.9120   -35.1040 ca         1 VOE      -0.107000
      6 C6           1.0940    13.9080   -35.8640 ca         1 VOE      -0.110500
      7 C4          -1.3260    14.2180   -35.7090 ca         1 VOE      -0.076300
      8 C3          -2.5460    15.2870   -33.7610 c3         1 VOE       0.152800
      9 C2          -2.6210    14.2200   -34.8880 c3         1 VOE      -0.015400
     10 N           -3.8480    15.5310   -33.0990 n8         1 VOE      -1.004200
     11 H1           1.9660    14.2060   -37.8230 ha         1 VOE       0.112000
     12 H2          -0.2130    14.7470   -38.9080 ha         1 VOE       0.111000
     13 H3          -2.3040    14.7540   -37.5730 ha         1 VOE       0.110500
     14 H4          -3.9020    12.8420   -33.7880 hc         1 VOE       0.048200
     15 H5          -2.1890    12.4830   -33.6360 hc         1 VOE       0.048200
     16 H6          -0.0400    13.6740   -34.0440 ha         1 VOE       0.110500
     17 H7           2.0440    13.6700   -35.3900 ha         1 VOE       0.111000
     18 H8          -1.8180    14.9740   -33.0000 h1         1 VOE       0.032700
     19 H9          -2.2000    16.2380   -34.1910 h1         1 VOE       0.032700
     20 H10         -3.4470    14.5150   -35.5470 hc         1 VOE       0.047700
     21 H11         -3.7410    16.2980   -32.4230 hn         1 VOE       0.393000
     22 H12         -4.5070    15.9110   -33.7900 hn         1 VOE       0.393000
     23 H14         -3.3920    10.7680   -35.0080 hc         1 VOE       0.032033
     24 H15         -3.8670    12.0180   -36.1770 hc         1 VOE       0.032033
     25 H16         -2.1530    11.5830   -35.9810 hc         1 VOE       0.032033
     26 C           -3.1000    11.7280   -35.4490 c3         1 VOE      -0.090100
@<TRIPOS>BOND
     1     1     2 ar  
     2     1     6 ar  
     3     1    11 1   
     4     2     3 ar  
     5     2    12 1   
     6     3     7 ar  
     7     3    13 1   
     8     4     9 1   
     9     4    14 1   
    10     4    15 1   
    11     4    26 1   
    12     5     6 ar  
    13     5     7 ar  
    14     5    16 1   
    15     6    17 1   
    16     7     9 1   
    17     8     9 1   
    18     8    10 1   
    19     8    18 1   
    20     8    19 1   
    21     9    20 1   
    22    10    21 1   
    23    10    22 1   
    24    23    26 1   
    25    24    26 1   
    26    25    26 1   
@<TRIPOS>SUBSTRUCTURE
     1 VOE         1 TEMP              0 ****  ****    0 ROOT
