@<TRIPOS>MOLECULE
VOG
   39    39     1     0     0
SMALL
No Charge or Current Charge


@<TRIPOS>ATOM
      1 C1          -1.9640     0.8740     0.4680 c6         1 VOG       0.191000
      2 O1          -1.6190     1.6930    -0.6560 oh         1 VOG      -0.705000
      3 C2          -2.4660    -0.5510     0.0060 c6         1 VOG       0.148300
      4 O2          -3.5600    -0.5180    -0.9270 oh         1 VOG      -0.705000
      5 C3          -1.3160    -1.3620    -0.6490 c6         1 VOG       0.094300
      6 O3          -1.8120    -2.6240    -1.1480 oh         1 VOG      -0.744000
      7 C4          -0.1770    -1.6050     0.3810 c6         1 VOG       0.167300
      8 O4           0.8570    -2.4070    -0.2330 oh         1 VOG      -0.715000
      9 C5           0.3910    -0.2480     0.9180 c6         1 VOG       0.201500
     10 C6          -0.7380     0.7010     1.4280 c6         1 VOG      -0.078400
     11 C7          -3.0930     1.6840     1.2010 c3         1 VOG       0.130600
     12 O7          -3.9690     2.3610     0.2700 oh         1 VOG      -0.706000
     13 N            1.2910     0.3980    -0.0730 n7         1 VOG      -0.865400
     14 C8           2.6190     0.9020     0.3810 c3         1 VOG       0.189500
     15 C9           3.4930    -0.2120     1.0600 c3         1 VOG       0.149600
     16 O9           3.3440    -1.5030     0.4310 oh         1 VOG      -0.644000
     17 C10          3.3550     1.5790    -0.8200 c3         1 VOG       0.149600
     18 O10          3.4890     0.6920    -1.9480 oh         1 VOG      -0.644000
     19 H1          -2.4800     2.1670    -0.7960 ho         1 VOG       0.525000
     20 H2          -2.7860    -1.0980     0.9060 h1         1 VOG       0.034700
     21 H3          -3.4400    -1.3670    -1.4210 ho         1 VOG       0.511000
     22 H4          -0.9010    -0.7660    -1.4780 h1         1 VOG       0.092700
     23 H5          -1.0090    -3.2030    -1.1810 ho         1 VOG       0.511000
     24 H6          -0.6010    -2.1480     1.2390 h1         1 VOG       0.034700
     25 H7           1.7320    -2.0660     0.1110 ho         1 VOG       0.514000
     26 H8           0.9910    -0.5050     1.8030 h1         1 VOG       0.034700
     27 H9          -0.3090     1.6820     1.6750 hc         1 VOG       0.048200
     28 H10         -1.1040     0.2960     2.3820 hc         1 VOG       0.048200
     29 H11         -3.6640     0.9960     1.8400 h1         1 VOG       0.032200
     30 H12         -2.6230     2.4240     1.8640 h1         1 VOG       0.032200
     31 H13         -4.7380     2.7000     0.7870 ho         1 VOG       0.503000
     32 H14          1.5070    -0.2850    -0.8090 hn         1 VOG       0.457000
     33 H16          2.4720     1.6880     1.1350 h1         1 VOG       0.065700
     34 H17          4.5460     0.1010     1.0470 h1         1 VOG       0.017950
     35 H18          3.2010    -0.2900     2.1150 h1         1 VOG       0.017950
     36 H19          4.1890    -1.9850     0.5780 ho         1 VOG       0.435500
     37 H20          2.7870     2.4710    -1.1170 h1         1 VOG       0.017950
     38 H21          4.3440     1.9220    -0.4870 h1         1 VOG       0.017950
     39 H22          3.9090     1.2090    -2.6690 ho         1 VOG       0.435500
@<TRIPOS>BOND
     1     1     2 1   
     2     1     3 1   
     3     1    10 1   
     4     1    11 1   
     5     2    19 1   
     6     3     4 1   
     7     3     5 1   
     8     3    20 1   
     9     4    21 1   
    10     5     6 1   
    11     5     7 1   
    12     5    22 1   
    13     6    23 1   
    14     7     8 1   
    15     7     9 1   
    16     7    24 1   
    17     8    25 1   
    18     9    10 1   
    19     9    13 1   
    20     9    26 1   
    21    10    27 1   
    22    10    28 1   
    23    11    12 1   
    24    11    29 1   
    25    11    30 1   
    26    12    31 1   
    27    13    14 1   
    28    13    32 1   
    29    14    15 1   
    30    14    17 1   
    31    14    33 1   
    32    15    16 1   
    33    15    34 1   
    34    15    35 1   
    35    16    36 1   
    36    17    18 1   
    37    17    37 1   
    38    17    38 1   
    39    18    39 1   
@<TRIPOS>SUBSTRUCTURE
     1 VOG         1 TEMP              0 ****  ****    0 ROOT
