@<TRIPOS>MOLECULE
VOG
   39    39     1     0     0
SMALL
bcc


@<TRIPOS>ATOM
      1 C1          -1.5700     0.7230     0.5680 c6         1 VOG       0.167800
      2 O1          -1.0540     1.5760    -0.4260 oh         1 VOG      -0.582800
      3 C2          -2.2580    -0.5040    -0.0580 c6         1 VOG       0.125100
      4 O2          -3.2280    -0.0750    -0.9790 oh         1 VOG      -0.582800
      5 C3          -1.2460    -1.4380    -0.7160 c6         1 VOG       0.071100
      6 O3          -1.9420    -2.5470    -1.2730 oh         1 VOG      -0.621800
      7 C4          -0.2540    -1.9370     0.3280 c6         1 VOG       0.144100
      8 O4           0.6320    -2.8970    -0.1950 oh         1 VOG      -0.592800
      9 C5           0.5520    -0.7590     0.8740 c6         1 VOG       0.201500
     10 C6          -0.4310     0.2480     1.4720 c6         1 VOG      -0.078400
     11 C7          -2.5420     1.5200     1.4580 c3         1 VOG       0.107400
     12 O7          -3.4410     2.2750     0.6750 oh         1 VOG      -0.583800
     13 N            1.3730    -0.2250    -0.1950 n7         1 VOG      -0.810200
     14 C8           2.1460     0.9690     0.0740 c3         1 VOG       0.189500
     15 C9           3.0720     0.8910     1.2870 c3         1 VOG       0.126400
     16 O9           3.9190    -0.2320     1.1990 oh         1 VOG      -0.581800
     17 C10          2.8420     1.4010    -1.2070 c3         1 VOG       0.126400
     18 O10          3.7270     0.4010    -1.6630 oh         1 VOG      -0.581800
     19 H1          -1.8070     2.0630    -0.7830 ho         1 VOG       0.426000
     20 H2          -2.7340    -1.0650     0.7650 h1         1 VOG       0.034700
     21 H3          -3.5690    -0.8610    -1.4180 ho         1 VOG       0.412000
     22 H4          -0.6990    -0.8960    -1.4940 h1         1 VOG       0.092700
     23 H5          -1.7810    -2.5710    -2.2190 ho         1 VOG       0.412000
     24 H6          -0.8240    -2.3670     1.1680 h1         1 VOG       0.034700
     25 H7           0.1070    -3.5520    -0.6680 ho         1 VOG       0.415000
     26 H8           1.1560    -1.1340     1.7160 h1         1 VOG       0.034700
     27 H9           0.0980     1.1210     1.8600 hc         1 VOG       0.048200
     28 H10         -0.8740    -0.2330     2.3510 hc         1 VOG       0.048200
     29 H11         -3.0810     0.8270     2.1150 h1         1 VOG       0.032200
     30 H12         -1.9480     2.1770     2.1030 h1         1 VOG       0.032200
     31 H13         -3.5020     3.1550     1.0530 ho         1 VOG       0.404000
     32 H14          1.9970    -0.9540    -0.5110 hn         1 VOG       0.401800
     33 H16          1.4520     1.7880     0.2860 h1         1 VOG       0.065700
     34 H17          3.6420     1.8300     1.3520 h1         1 VOG       0.017950
     35 H18          2.4560     0.8460     2.1950 h1         1 VOG       0.017950
     36 H19          4.3460    -0.3440     2.0520 ho         1 VOG       0.396500
     37 H20          2.0620     1.6080    -1.9500 h1         1 VOG       0.017950
     38 H21          3.3690     2.3470    -1.0200 h1         1 VOG       0.017950
     39 H22          3.9870     0.6250    -2.5610 ho         1 VOG       0.396500
@<TRIPOS>BOND
     1     1     2 1   
     2     1     3 1   
     3     1    10 1   
     4     1    11 1   
     5     2    19 1   
     6     3     4 1   
     7     3     5 1   
     8     3    20 1   
     9     4    21 1   
    10     5     6 1   
    11     5     7 1   
    12     5    22 1   
    13     6    23 1   
    14     7     8 1   
    15     7     9 1   
    16     7    24 1   
    17     8    25 1   
    18     9    10 1   
    19     9    13 1   
    20     9    26 1   
    21    10    27 1   
    22    10    28 1   
    23    11    12 1   
    24    11    29 1   
    25    11    30 1   
    26    12    31 1   
    27    13    14 1   
    28    13    32 1   
    29    14    15 1   
    30    14    17 1   
    31    14    33 1   
    32    15    16 1   
    33    15    34 1   
    34    15    35 1   
    35    16    36 1   
    36    17    18 1   
    37    17    37 1   
    38    17    38 1   
    39    18    39 1   
@<TRIPOS>SUBSTRUCTURE
     1 VOG         1 TEMP              0 ****  ****    0 ROOT
