@<TRIPOS>MOLECULE
VOH
   24    24     1     0     0
SMALL
abcg2


@<TRIPOS>ATOM
      1 CAB          0.5620     3.0910    -0.1300 c3         1 VOH       0.145900
      2 OAI          1.2200     1.8420    -0.1380 os         1 VOH      -0.323100
      3 CAL          0.4730     0.7300    -0.0010 ca         1 VOH       0.107100
      4 CAF         -0.9030     0.7090     0.1320 ca         1 VOH      -0.146000
      5 CAJ         -1.5950    -0.5010     0.2720 ca         1 VOH      -0.088300
      6 CAG         -3.0870    -0.4900     0.4370 c3         1 VOH       0.212900
      7 OAC         -3.6730     0.1690    -0.6670 oh         1 VOH      -0.655000
      8 CAD         -0.8820    -1.6830     0.2650 ca         1 VOH      -0.096000
      9 CAE          0.5080    -1.6780     0.1370 ca         1 VOH      -0.174000
     10 CAK          1.1940    -0.4850     0.0040 ca         1 VOH       0.116100
     11 OAH          2.5300    -0.3680    -0.1230 os         1 VOH      -0.321100
     12 CAA          3.3060    -1.5460    -0.0790 c3         1 VOH       0.145900
     13 H1           1.3330     3.8480    -0.2490 h1         1 VOH       0.039367
     14 H2          -0.1520     3.1850    -0.9530 h1         1 VOH       0.039367
     15 H3           0.0360     3.2710     0.8120 h1         1 VOH       0.039367
     16 H4          -1.4640     1.6340     0.1390 ha         1 VOH       0.124000
     17 H5          -3.4440    -1.5240     0.5300 h1         1 VOH       0.023200
     18 H6          -3.3450     0.0170     1.3750 h1         1 VOH       0.023200
     19 H7          -4.5930     0.3460    -0.4500 ho         1 VOH       0.439000
     20 H8          -1.3980    -2.6300     0.3650 ha         1 VOH       0.112000
     21 H9           1.0380    -2.6220     0.1380 ha         1 VOH       0.119000
     22 H10          3.0680    -2.2270    -0.9010 h1         1 VOH       0.039033
     23 H11          4.3440    -1.2360    -0.1710 h1         1 VOH       0.039033
     24 H12          3.1820    -2.0830     0.8660 h1         1 VOH       0.039033
@<TRIPOS>BOND
     1     1     2 1   
     2     1    13 1   
     3     1    14 1   
     4     1    15 1   
     5     2     3 1   
     6     3     4 ar  
     7     3    10 ar  
     8     4     5 ar  
     9     4    16 1   
    10     5     6 1   
    11     5     8 ar  
    12     6     7 1   
    13     6    17 1   
    14     6    18 1   
    15     7    19 1   
    16     8     9 ar  
    17     8    20 1   
    18     9    10 ar  
    19     9    21 1   
    20    10    11 1   
    21    11    12 1   
    22    12    22 1   
    23    12    23 1   
    24    12    24 1   
@<TRIPOS>SUBSTRUCTURE
     1 VOH         1 TEMP              0 ****  ****    0 ROOT
