@<TRIPOS>MOLECULE
VOH
   24    24     1     0     0
SMALL
No Charge or Current Charge


@<TRIPOS>ATOM
      1 CAB          0.6200     3.2420    -0.0470 c3         1 VOH       0.145900
      2 OAI          1.2380     1.9430    -0.0630 os         1 VOH      -0.323100
      3 CAL          0.5080     0.7690     0.0480 ca         1 VOH       0.107100
      4 CAF         -0.9000     0.7770     0.1870 ca         1 VOH      -0.146000
      5 CAJ         -1.6150    -0.4310     0.2970 ca         1 VOH      -0.088300
      6 CAG         -3.1310    -0.4150     0.4510 c3         1 VOH       0.212900
      7 OAC         -3.7600    -0.3530    -0.8340 oh         1 VOH      -0.655000
      8 CAD         -0.9190    -1.6530     0.2680 ca         1 VOH      -0.096000
      9 CAE          0.4790    -1.6750     0.1310 ca         1 VOH      -0.174000
     10 CAK          1.2020    -0.4650     0.0200 ca         1 VOH       0.116100
     11 OAH          2.5810    -0.4490    -0.1160 os         1 VOH      -0.321100
     12 CAA          3.3680    -1.6530    -0.1550 c3         1 VOH       0.145900
     13 H1           1.3820     4.0250    -0.1480 h1         1 VOH       0.039367
     14 H2          -0.0880     3.3480    -0.8780 h1         1 VOH       0.039367
     15 H3           0.0860     3.4080     0.8970 h1         1 VOH       0.039367
     16 H4          -1.4550     1.7110     0.2090 ha         1 VOH       0.124000
     17 H5          -3.4530    -1.3170     0.9890 h1         1 VOH       0.023200
     18 H6          -3.4240     0.4510     1.0590 h1         1 VOH       0.023200
     19 H7          -4.7290    -0.3470    -0.6720 ho         1 VOH       0.439000
     20 H8          -1.4650    -2.5910     0.3510 ha         1 VOH       0.112000
     21 H9           0.9810    -2.6370     0.1130 ha         1 VOH       0.119000
     22 H10          3.0730    -2.2850    -1.0020 h1         1 VOH       0.039033
     23 H11          4.4310    -1.4070    -0.2670 h1         1 VOH       0.039033
     24 H12          3.2480    -2.2260     0.7730 h1         1 VOH       0.039033
@<TRIPOS>BOND
     1     1     2 1   
     2     1    13 1   
     3     1    14 1   
     4     1    15 1   
     5     2     3 1   
     6     3     4 ar  
     7     3    10 ar  
     8     4     5 ar  
     9     4    16 1   
    10     5     6 1   
    11     5     8 ar  
    12     6     7 1   
    13     6    17 1   
    14     6    18 1   
    15     7    19 1   
    16     8     9 ar  
    17     8    20 1   
    18     9    10 ar  
    19     9    21 1   
    20    10    11 1   
    21    11    12 1   
    22    12    22 1   
    23    12    23 1   
    24    12    24 1   
@<TRIPOS>SUBSTRUCTURE
     1 VOH         1 TEMP              0 ****  ****    0 ROOT
