@<TRIPOS>MOLECULE
VOI
   45    47     1     0     0
SMALL
abcg2


@<TRIPOS>ATOM
      1 C1          44.7360   -61.5530    21.8600 c          1 VOI       0.601100
      2 C10         48.8050   -57.6760    19.5060 ca         1 VOI      -0.072000
      3 C11         47.7980   -58.2900    20.2260 ca         1 VOI       0.047100
      4 C12         47.2030   -57.6860    22.4370 cc         1 VOI       0.197100
      5 C13         46.4130   -56.6350    22.0780 cd         1 VOI      -0.219000
      6 C14         45.6970   -55.9240    23.0850 cd         1 VOI      -0.084000
      7 C15         45.7780   -56.2670    24.3900 cc         1 VOI      -0.169000
      8 C16         47.3060   -58.0700    23.7980 cc         1 VOI      -0.137000
      9 C17         47.9850   -59.0750    24.4600 cd         1 VOI      -0.172000
     10 C18         47.6470   -58.9450    25.8310 cd         1 VOI      -0.044700
     11 C19         48.1040   -59.7780    26.8800 ch         1 VOI       0.316700
     12 C2          44.3490   -59.8780    23.6420 c3         1 VOI       0.096800
     13 C20         46.7850   -57.8630    25.9840 cc         1 VOI      -0.194100
     14 C3          45.7960   -61.9180    23.9820 c3         1 VOI       0.096800
     15 C4          43.8590   -60.7390    20.9250 c3         1 VOI      -0.155400
     16 C5          44.6830   -60.1530    19.7930 c3         1 VOI       0.172600
     17 C6          46.6670   -58.8260    19.5860 ca         1 VOI       0.140100
     18 C7          46.5820   -58.7390    18.1980 ca         1 VOI      -0.188000
     19 C8          47.6030   -58.1240    17.4760 ca         1 VOI      -0.067000
     20 C9          48.7130   -57.5920    18.1180 ca         1 VOI      -0.139000
     21 N1          44.9420   -61.1080    23.1150 n          1 VOI      -0.401800
     22 N2          46.5800   -57.3350    24.7480 na         1 VOI       0.164100
     23 N3          48.4960   -60.4680    27.7210 n1         1 VOI      -0.466000
     24 O1          45.2790   -62.5850    21.4430 o          1 VOI      -0.618100
     25 O2          45.7340   -59.3850    20.3900 os         1 VOI      -0.346100
     26 H1          49.6600   -57.2800    20.0410 ha         1 VOI       0.133000
     27 H2          46.3330   -56.3340    21.0450 ha         1 VOI       0.135000
     28 H3          45.0690   -55.0920    22.8030 ha         1 VOI       0.129000
     29 H4          45.2590   -55.7750    25.1970 h4         1 VOI       0.146000
     30 H5          48.6240   -59.8170    24.0170 ha         1 VOI       0.228000
     31 H6          44.7920   -59.6690    24.6110 h1         1 VOI       0.042700
     32 H7          44.5530   -59.0350    22.9850 h1         1 VOI       0.042700
     33 H8          43.2690   -59.9730    23.7700 h1         1 VOI       0.042700
     34 H9          46.3230   -57.4490    26.8630 h4         1 VOI       0.232000
     35 H10         45.9060   -61.4200    24.9390 h1         1 VOI       0.042700
     36 H11         45.3700   -62.9040    24.1380 h1         1 VOI       0.042700
     37 H12         46.7790   -62.0390    23.5340 h1         1 VOI       0.042700
     38 H13         43.3030   -59.9540    21.4300 hc         1 VOI       0.071200
     39 H14         43.1380   -61.4280    20.4820 hc         1 VOI       0.071200
     40 H15         44.0620   -59.5120    19.1670 h1         1 VOI       0.049700
     41 H16         45.1170   -60.9430    19.1760 h1         1 VOI       0.049700
     42 H17         45.7230   -59.1420    17.6790 ha         1 VOI       0.122000
     43 H18         47.5250   -58.0610    16.3970 ha         1 VOI       0.118000
     44 H19         49.5030   -57.1140    17.5540 ha         1 VOI       0.123000
     45 O3          47.9530   -58.4520    21.5950 os         1 VOI      -0.222200
@<TRIPOS>BOND
     1     1    15 1   
     2     1    21 1   
     3     1    24 2   
     4     2     3 ar  
     5     2    20 ar  
     6     2    26 1   
     7     3    17 ar  
     8     3    45 1   
     9     4     5 2   
    10     4     8 1   
    11     4    45 1   
    12     5     6 1   
    13     5    27 1   
    14     6     7 2   
    15     6    28 1   
    16     7    22 1   
    17     7    29 1   
    18     8     9 2   
    19     8    22 1   
    20     9    10 1   
    21     9    30 1   
    22    10    11 1   
    23    10    13 2   
    24    11    23 3   
    25    12    21 1   
    26    12    31 1   
    27    12    32 1   
    28    12    33 1   
    29    13    22 1   
    30    13    34 1   
    31    14    21 1   
    32    14    35 1   
    33    14    36 1   
    34    14    37 1   
    35    15    16 1   
    36    15    38 1   
    37    15    39 1   
    38    16    25 1   
    39    16    40 1   
    40    16    41 1   
    41    17    18 ar  
    42    17    25 1   
    43    18    19 ar  
    44    18    42 1   
    45    19    20 ar  
    46    19    43 1   
    47    20    44 1   
@<TRIPOS>SUBSTRUCTURE
     1 VOI         1 TEMP              0 ****  ****    0 ROOT
