@<TRIPOS>MOLECULE
VOI
   45    47     1     0     0
SMALL
No Charge or Current Charge


@<TRIPOS>ATOM
      1 C1          45.2060   -61.3150    22.5590 c          1 VOI       0.601100
      2 C10         49.0280   -57.3800    18.8340 ca         1 VOI      -0.072000
      3 C11         48.2390   -57.8360    19.9060 ca         1 VOI       0.047100
      4 C12         47.6870   -57.1020    21.9990 cc         1 VOI       0.197100
      5 C13         47.0490   -55.9280    21.6710 cd         1 VOI      -0.219000
      6 C14         46.0120   -55.4480    22.5660 cd         1 VOI      -0.084000
      7 C15         45.6390   -56.1080    23.7460 cc         1 VOI      -0.169000
      8 C16         47.3310   -57.7570    23.1980 cc         1 VOI      -0.137000
      9 C17         47.8100   -58.8810    23.8120 cd         1 VOI      -0.172000
     10 C18         47.0930   -59.0520    25.0410 cd         1 VOI      -0.044700
     11 C19         47.2990   -60.0790    26.0040 ch         1 VOI       0.316700
     12 C2          43.7940   -60.9150    24.6250 c3         1 VOI       0.096800
     13 C20         46.1640   -58.0290    25.1630 cc         1 VOI      -0.194100
     14 C3          45.5010   -62.7870    24.5700 c3         1 VOI       0.096800
     15 C4          44.5030   -60.1240    21.8840 c3         1 VOI      -0.155400
     16 C5          45.0380   -59.7400    20.4940 c3         1 VOI       0.172600
     17 C6          47.0550   -58.5860    19.6360 ca         1 VOI       0.140100
     18 C7          46.6770   -58.8160    18.2920 ca         1 VOI      -0.188000
     19 C8          47.4640   -58.3300    17.2350 ca         1 VOI      -0.067000
     20 C9          48.6410   -57.6190    17.5060 ca         1 VOI      -0.139000
     21 N1          44.8630   -61.6340    23.8940 n          1 VOI      -0.401800
     22 N2          46.3450   -57.2870    24.0110 na         1 VOI       0.164100
     23 N3          47.4800   -60.9030    26.8120 n1         1 VOI      -0.466000
     24 O1          46.0250   -61.9980    21.9550 o          1 VOI      -0.618100
     25 O2          46.3150   -59.1120    20.6810 os         1 VOI      -0.346100
     26 H1          49.9400   -56.8240    19.0370 ha         1 VOI       0.133000
     27 H2          47.3130   -55.3760    20.7750 ha         1 VOI       0.135000
     28 H3          45.5000   -54.5240    22.3130 ha         1 VOI       0.129000
     29 H4          44.8810   -55.7880    24.4480 h4         1 VOI       0.146000
     30 H5          48.6080   -59.5190    23.4380 ha         1 VOI       0.228000
     31 H6          43.6330   -61.3600    25.6150 h1         1 VOI       0.042700
     32 H7          44.0750   -59.8630    24.7590 h1         1 VOI       0.042700
     33 H8          42.8530   -60.9710    24.0630 h1         1 VOI       0.042700
     34 H9          45.4430   -57.7840    25.9330 h4         1 VOI       0.232000
     35 H10         45.2910   -62.7720    25.6470 h1         1 VOI       0.042700
     36 H11         45.1160   -63.7220    24.1450 h1         1 VOI       0.042700
     37 H12         46.5890   -62.7480    24.4280 h1         1 VOI       0.042700
     38 H13         44.5030   -59.2670    22.5660 hc         1 VOI       0.071200
     39 H14         43.4360   -60.3640    21.8340 hc         1 VOI       0.071200
     40 H15         44.3370   -59.0390    20.0220 h1         1 VOI       0.049700
     41 H16         45.1170   -60.6340    19.8610 h1         1 VOI       0.049700
     42 H17         45.7830   -59.3810    18.0450 ha         1 VOI       0.122000
     43 H18         47.1660   -58.5150    16.2040 ha         1 VOI       0.118000
     44 H19         49.2550   -57.2510    16.6860 ha         1 VOI       0.123000
     45 O3          48.7030   -57.5390    21.1830 os         1 VOI      -0.222200
@<TRIPOS>BOND
     1     1    15 1   
     2     1    21 1   
     3     1    24 2   
     4     2     3 ar  
     5     2    20 ar  
     6     2    26 1   
     7     3    17 ar  
     8     3    45 1   
     9     4     5 2   
    10     4     8 1   
    11     4    45 1   
    12     5     6 1   
    13     5    27 1   
    14     6     7 2   
    15     6    28 1   
    16     7    22 1   
    17     7    29 1   
    18     8     9 2   
    19     8    22 1   
    20     9    10 1   
    21     9    30 1   
    22    10    11 1   
    23    10    13 2   
    24    11    23 3   
    25    12    21 1   
    26    12    31 1   
    27    12    32 1   
    28    12    33 1   
    29    13    22 1   
    30    13    34 1   
    31    14    21 1   
    32    14    35 1   
    33    14    36 1   
    34    14    37 1   
    35    15    16 1   
    36    15    38 1   
    37    15    39 1   
    38    16    25 1   
    39    16    40 1   
    40    16    41 1   
    41    17    18 ar  
    42    17    25 1   
    43    18    19 ar  
    44    18    42 1   
    45    19    20 ar  
    46    19    43 1   
    47    20    44 1   
@<TRIPOS>SUBSTRUCTURE
     1 VOI         1 TEMP              0 ****  ****    0 ROOT
