@<TRIPOS>MOLECULE
VOJ
   47    50     1     0     0
SMALL
abcg2


@<TRIPOS>ATOM
      1 N3         -14.2020    22.2100    -0.9870 nb         1 VOJ      -0.727000
      2 C4         -14.7920    20.6320     3.6350 cc         1 VOJ      -0.158000
      3 N2         -15.2060    18.4760     3.2840 nc         1 VOJ      -0.532800
      4 C7         -14.5940    23.8470     0.6970 ca         1 VOJ       0.026100
      5 C6         -14.7690    22.8560     1.6290 ca         1 VOJ      -0.129000
      6 C9         -14.3480    21.2540    -0.0670 ca         1 VOJ       0.351900
      7 C13        -17.3530    25.4680     1.7290 ca         1 VOJ      -0.130000
      8 C20        -14.0750    24.1790     6.0760 cc         1 VOJ       0.242900
      9 C8         -14.3220    23.4770    -0.6440 ca         1 VOJ       0.571900
     10 N5         -15.6690    25.0370     4.9940 na         1 VOJ       0.213000
     11 C18        -15.4120    25.9170     5.9840 cd         1 VOJ      -0.155000
     12 C16        -18.0020    25.0020     4.3840 ca         1 VOJ      -0.076000
     13 C19        -14.3740    25.3940     6.7160 cc         1 VOJ      -0.228000
     14 C2         -15.0940    19.0670     2.1070 cd         1 VOJ       0.270300
     15 C3         -14.8250    20.4540     2.2630 cd         1 VOJ      -0.146000
     16 N1         -15.0190    19.4340     4.1840 na         1 VOJ      -0.001200
     17 C5         -14.6470    21.5020     1.2600 ca         1 VOJ      -0.045000
     18 N4         -14.1210    24.4360    -1.5980 nv         1 VOJ      -1.040900
     19 O1         -14.6670    25.1780     0.9260 os         1 VOJ      -0.351100
     20 C10        -14.9020    25.6390     2.2450 c3         1 VOJ       0.218600
     21 C11        -14.5990    27.1270     2.2590 c3         1 VOJ      -0.087100
     22 C12        -16.3340    25.3840     2.6700 ca         1 VOJ      -0.067300
     23 C14        -18.6650    25.3240     2.1320 ca         1 VOJ       0.185000
     24 C15        -19.0170    25.0980     3.4480 ca         1 VOJ      -0.144000
     25 C17        -16.6750    25.1410     3.9990 ca         1 VOJ      -0.012200
     26 N6         -14.8650    23.9710     5.0400 nd         1 VOJ      -0.536800
     27 F1         -19.6310    25.4090     1.2090 f          1 VOJ      -0.169000
     28 H1         -14.6330    21.5140     4.2370 h4         1 VOJ       0.170000
     29 H3         -14.9980    23.0980     2.6590 ha         1 VOJ       0.138000
     30 H4         -14.2060    20.2440    -0.4280 h4         1 VOJ       0.021100
     31 H5         -17.1330    25.6530     0.6850 ha         1 VOJ       0.149000
     32 H6         -13.3200    23.4520     6.3350 h4         1 VOJ       0.039100
     33 H7         -15.9710    26.8330     6.0850 h4         1 VOJ       0.159000
     34 H8         -18.2400    24.8070     5.4210 ha         1 VOJ       0.132000
     35 H9         -13.9000    25.8250     7.5810 ha         1 VOJ       0.150000
     36 H10        -15.6600    17.2840     1.0920 hc         1 VOJ       0.048367
     37 H11        -15.9610    18.7560     0.1680 hc         1 VOJ       0.048367
     38 H12        -14.3240    18.1360     0.3270 hc         1 VOJ       0.048367
     39 H13        -14.1850    24.1090    -2.5490 hn         1 VOJ       0.466500
     40 H14        -14.5540    25.3340    -1.4550 hn         1 VOJ       0.466500
     41 H15        -14.2120    25.1350     2.9290 h1         1 VOJ       0.074700
     42 H16        -14.7610    27.5260     3.2600 hc         1 VOJ       0.051033
     43 H17        -13.5600    27.3090     1.9870 hc         1 VOJ       0.051033
     44 H18        -15.2470    27.6690     1.5690 hc         1 VOJ       0.051033
     45 H19        -20.0540    24.9880     3.7350 ha         1 VOJ       0.141000
     46 H2         -15.0590    19.2160     5.1660 hn         1 VOJ       0.371000
     47 C1         -15.2680    18.2730     0.8580 c3         1 VOJ      -0.123400
@<TRIPOS>BOND
     1     1     6 ar  
     2     1     9 ar  
     3     2    15 2   
     4     2    16 1   
     5     2    28 1   
     6     3    14 2   
     7     3    16 1   
     8     4     5 ar  
     9     4     9 ar  
    10     4    19 1   
    11     5    17 ar  
    12     5    29 1   
    13     6    17 ar  
    14     6    30 1   
    15     7    22 ar  
    16     7    23 ar  
    17     7    31 1   
    18     8    13 1   
    19     8    26 2   
    20     8    32 1   
    21     9    18 1   
    22    10    11 1   
    23    10    25 1   
    24    10    26 1   
    25    11    13 2   
    26    11    33 1   
    27    12    24 ar  
    28    12    25 ar  
    29    12    34 1   
    30    13    35 1   
    31    14    15 1   
    32    14    47 1   
    33    15    17 1   
    34    16    46 1   
    35    18    39 1   
    36    18    40 1   
    37    19    20 1   
    38    20    21 1   
    39    20    22 1   
    40    20    41 1   
    41    21    42 1   
    42    21    43 1   
    43    21    44 1   
    44    22    25 ar  
    45    23    24 ar  
    46    23    27 1   
    47    24    45 1   
    48    36    47 1   
    49    37    47 1   
    50    38    47 1   
@<TRIPOS>SUBSTRUCTURE
     1 VOJ         1 TEMP              0 ****  ****    0 ROOT
