@<TRIPOS>MOLECULE
VOJ
   47    50     1     0     0
SMALL
No Charge or Current Charge


@<TRIPOS>ATOM
      1 N3         -14.3510    22.2250    -1.1040 nb         1 VOJ      -0.727000
      2 C4         -14.8660    20.5800     3.5680 cc         1 VOJ      -0.158000
      3 N2         -15.2700    18.3410     3.1440 nc         1 VOJ      -0.532800
      4 C7         -14.5170    23.8640     0.6910 ca         1 VOJ       0.026100
      5 C6         -14.6790    22.8370     1.6460 ca         1 VOJ      -0.129000
      6 C9         -14.5170    21.2500    -0.1780 ca         1 VOJ       0.351900
      7 C13        -17.2710    25.4570     1.7850 ca         1 VOJ      -0.130000
      8 C20        -14.1320    24.4480     6.4300 cc         1 VOJ       0.242900
      9 C8         -14.3530    23.4770    -0.6630 ca         1 VOJ       0.571900
     10 N5         -15.6320    24.9950     5.1010 na         1 VOJ       0.213000
     11 C18        -15.4340    26.1620     5.8360 cd         1 VOJ      -0.155000
     12 C16        -17.9330    24.7580     4.4210 ca         1 VOJ      -0.076000
     13 C19        -14.4480    25.7950     6.7030 cc         1 VOJ      -0.228000
     14 C2         -15.1430    19.0050     2.0100 cd         1 VOJ       0.270300
     15 C3         -14.8690    20.3960     2.2080 cd         1 VOJ      -0.146000
     16 N1         -15.0940    19.3180     4.1010 na         1 VOJ      -0.001200
     17 C5         -14.6910    21.4890     1.2120 ca         1 VOJ      -0.045000
     18 N4         -14.1890    24.3350    -1.6870 nv         1 VOJ      -1.040900
     19 O1         -14.5200    25.2150     1.0290 os         1 VOJ      -0.351100
     20 C10        -14.7920    25.6960     2.3620 c3         1 VOJ       0.218600
     21 C11        -14.5210    27.2110     2.3470 c3         1 VOJ      -0.087100
     22 C12        -16.2470    25.3880     2.7580 ca         1 VOJ      -0.067300
     23 C14        -18.6000    25.1700     2.1250 ca         1 VOJ       0.185000
     24 C15        -18.9360    24.8180     3.4390 ca         1 VOJ      -0.144000
     25 C17        -16.5930    25.0440     4.0920 ca         1 VOJ      -0.012200
     26 N6         -14.8390    23.9200     5.4500 nd         1 VOJ      -0.536800
     27 F1         -19.5640    25.2340     1.1810 f          1 VOJ      -0.169000
     28 H1         -14.7190    21.4560     4.1890 h4         1 VOJ       0.170000
     29 H3         -14.8050    23.0720     2.6960 ha         1 VOJ       0.138000
     30 H4         -14.4800    20.2460    -0.5830 h4         1 VOJ       0.021100
     31 H5         -17.0390    25.7300     0.7590 ha         1 VOJ       0.149000
     32 H6         -13.3930    23.8360     6.9300 h4         1 VOJ       0.039100
     33 H7         -15.9770    27.0870     5.6830 h4         1 VOJ       0.159000
     34 H8         -18.1960    24.4920     5.4430 ha         1 VOJ       0.132000
     35 H9         -13.9800    26.4050     7.4690 ha         1 VOJ       0.150000
     36 H10        -15.7150    17.2350     0.9020 hc         1 VOJ       0.048367
     37 H11        -16.0500    18.7500     0.0680 hc         1 VOJ       0.048367
     38 H12        -14.3800    18.1390     0.1870 hc         1 VOJ       0.048367
     39 H13        -14.3630    23.9570    -2.6100 hn         1 VOJ       0.466500
     40 H14        -14.4400    25.3040    -1.5220 hn         1 VOJ       0.466500
     41 H15        -14.0910    25.2340     3.0690 h1         1 VOJ       0.074700
     42 H16        -14.6880    27.6400     3.3410 hc         1 VOJ       0.051033
     43 H17        -13.4820    27.4120     2.0580 hc         1 VOJ       0.051033
     44 H18        -15.1850    27.7180     1.6370 hc         1 VOJ       0.051033
     45 H19        -19.9690    24.5970     3.6940 ha         1 VOJ       0.141000
     46 H2         -15.1410    19.0930     5.0950 hn         1 VOJ       0.371000
     47 C1         -15.3300    18.2450     0.7220 c3         1 VOJ      -0.123400
@<TRIPOS>BOND
     1     1     6 ar  
     2     1     9 ar  
     3     2    15 2   
     4     2    16 1   
     5     2    28 1   
     6     3    14 2   
     7     3    16 1   
     8     4     5 ar  
     9     4     9 ar  
    10     4    19 1   
    11     5    17 ar  
    12     5    29 1   
    13     6    17 ar  
    14     6    30 1   
    15     7    22 ar  
    16     7    23 ar  
    17     7    31 1   
    18     8    13 1   
    19     8    26 2   
    20     8    32 1   
    21     9    18 1   
    22    10    11 1   
    23    10    25 1   
    24    10    26 1   
    25    11    13 2   
    26    11    33 1   
    27    12    24 ar  
    28    12    25 ar  
    29    12    34 1   
    30    13    35 1   
    31    14    15 1   
    32    14    47 1   
    33    15    17 1   
    34    16    46 1   
    35    18    39 1   
    36    18    40 1   
    37    19    20 1   
    38    20    21 1   
    39    20    22 1   
    40    20    41 1   
    41    21    42 1   
    42    21    43 1   
    43    21    44 1   
    44    22    25 ar  
    45    23    24 ar  
    46    23    27 1   
    47    24    45 1   
    48    36    47 1   
    49    37    47 1   
    50    38    47 1   
@<TRIPOS>SUBSTRUCTURE
     1 VOJ         1 TEMP              0 ****  ****    0 ROOT
