@<TRIPOS>MOLECULE
VOK
   28    28     1     0     0
SMALL
abcg2


@<TRIPOS>ATOM
      1 N1          -1.4420    13.1000   -35.3160 n          1 VOK      -0.381400
      2 C7          -3.5850    14.9800   -37.4270 c3         1 VOK      -0.061400
      3 C8          -3.6910    13.6380   -38.1440 c3         1 VOK      -0.099100
      4 O1          -2.1660    11.3280   -34.0620 o          1 VOK      -0.537000
      5 C1          -3.0150    16.3040   -35.3420 c3         1 VOK      -0.061400
      6 C5          -1.6890    14.2940   -35.9690 c          1 VOK       0.577000
      7 C6          -0.0720    12.5760   -35.3680 c3         1 VOK       0.089300
      8 C4          -2.4040    12.3770   -34.6260 c          1 VOK       0.632000
      9 C3          -4.1120    14.0780   -35.1760 c          1 VOK       0.586000
     10 C2          -3.0940    14.8840   -35.9570 c6         1 VOK      -0.208000
     11 O2          -0.7850    14.8620   -36.5510 o          1 VOK      -0.508000
     12 C           -2.5220    16.3370   -33.8980 c3         1 VOK      -0.099100
     13 N           -3.6770    12.9120   -34.6030 ns         1 VOK      -0.474500
     14 O           -5.2700    14.4280   -35.0570 o          1 VOK      -0.510000
     15 H1          -2.8900    15.6360   -37.9520 hc         1 VOK       0.067200
     16 H2          -4.5550    15.4770   -37.4060 hc         1 VOK       0.067200
     17 H3          -4.0370    13.7860   -39.1680 hc         1 VOK       0.042200
     18 H4          -2.7250    13.1290   -38.1920 hc         1 VOK       0.042200
     19 H5          -4.3990    12.9700   -37.6490 hc         1 VOK       0.042200
     20 H6          -2.3550    16.8920   -35.9800 hc         1 VOK       0.067200
     21 H7          -4.0120    16.7390   -35.4110 hc         1 VOK       0.067200
     22 H8          -0.0430    11.6480   -34.8100 h1         1 VOK       0.061033
     23 H9           0.2100    12.4000   -36.4040 h1         1 VOK       0.061033
     24 H10          0.6100    13.3010   -34.9300 h1         1 VOK       0.061033
     25 H11         -2.4940    17.3650   -33.5350 hc         1 VOK       0.042200
     26 H12         -3.1790    15.7690   -33.2350 hc         1 VOK       0.042200
     27 H13         -1.5140    15.9260   -33.8070 hc         1 VOK       0.042200
     28 H14         -4.3590    12.3660   -34.0910 hn         1 VOK       0.348500
@<TRIPOS>BOND
     1     1     6 1   
     2     1     7 1   
     3     1     8 1   
     4     2     3 1   
     5     2    10 1   
     6     2    15 1   
     7     2    16 1   
     8     3    17 1   
     9     3    18 1   
    10     3    19 1   
    11     4     8 2   
    12     5    10 1   
    13     5    12 1   
    14     5    20 1   
    15     5    21 1   
    16     6    10 1   
    17     6    11 2   
    18     7    22 1   
    19     7    23 1   
    20     7    24 1   
    21     8    13 1   
    22     9    10 1   
    23     9    13 1   
    24     9    14 2   
    25    12    25 1   
    26    12    26 1   
    27    12    27 1   
    28    13    28 1   
@<TRIPOS>SUBSTRUCTURE
     1 VOK         1 TEMP              0 ****  ****    0 ROOT
