@<TRIPOS>MOLECULE
VOK
   28    28     1     0     0
SMALL
No Charge or Current Charge


@<TRIPOS>ATOM
      1 N1          -1.4340    13.0580   -35.3240 n          1 VOK      -0.381400
      2 C7          -3.5990    14.9650   -37.4320 c3         1 VOK      -0.061400
      3 C8          -3.7030    13.6130   -38.1750 c3         1 VOK      -0.099100
      4 O1          -2.1830    11.3080   -34.0280 o          1 VOK      -0.537000
      5 C1          -3.0370    16.3380   -35.3570 c3         1 VOK      -0.061400
      6 C5          -1.6640    14.2910   -35.9510 c          1 VOK       0.577000
      7 C6          -0.0580    12.4910   -35.3840 c3         1 VOK       0.089300
      8 C4          -2.4030    12.3590   -34.6040 c          1 VOK       0.632000
      9 C3          -4.0890    14.0490   -35.1310 c          1 VOK       0.586000
     10 C2          -3.0890    14.8790   -35.9470 c6         1 VOK      -0.208000
     11 O2          -0.7520    14.8970   -36.5000 o          1 VOK      -0.508000
     12 C           -2.5440    16.4420   -33.8960 c3         1 VOK      -0.099100
     13 N           -3.6350    12.9100   -34.5600 ns         1 VOK      -0.474500
     14 O           -5.2520    14.3850   -34.9840 o          1 VOK      -0.510000
     15 H1          -2.9400    15.6200   -38.0170 hc         1 VOK       0.067200
     16 H2          -4.5860    15.4430   -37.4620 hc         1 VOK       0.067200
     17 H3          -4.0650    13.7710   -39.1980 hc         1 VOK       0.042200
     18 H4          -2.7260    13.1180   -38.2370 hc         1 VOK       0.042200
     19 H5          -4.4030    12.9360   -37.6720 hc         1 VOK       0.042200
     20 H6          -2.3900    16.9730   -35.9770 hc         1 VOK       0.067200
     21 H7          -4.0320    16.8000   -35.4110 hc         1 VOK       0.067200
     22 H8          -0.0680    11.4020   -35.2450 h1         1 VOK       0.061033
     23 H9           0.4000    12.6920   -36.3610 h1         1 VOK       0.061033
     24 H10          0.5610    12.9440   -34.6000 h1         1 VOK       0.061033
     25 H11         -2.5400    17.4890   -33.5710 hc         1 VOK       0.042200
     26 H12         -3.1970    15.8820   -33.2160 hc         1 VOK       0.042200
     27 H13         -1.5230    16.0540   -33.7930 hc         1 VOK       0.042200
     28 H14         -4.3170    12.3900   -34.0310 hn         1 VOK       0.348500
@<TRIPOS>BOND
     1     1     6 1   
     2     1     7 1   
     3     1     8 1   
     4     2     3 1   
     5     2    10 1   
     6     2    15 1   
     7     2    16 1   
     8     3    17 1   
     9     3    18 1   
    10     3    19 1   
    11     4     8 2   
    12     5    10 1   
    13     5    12 1   
    14     5    20 1   
    15     5    21 1   
    16     6    10 1   
    17     6    11 2   
    18     7    22 1   
    19     7    23 1   
    20     7    24 1   
    21     8    13 1   
    22     9    10 1   
    23     9    13 1   
    24     9    14 2   
    25    12    25 1   
    26    12    26 1   
    27    12    27 1   
    28    13    28 1   
@<TRIPOS>SUBSTRUCTURE
     1 VOK         1 TEMP              0 ****  ****    0 ROOT
