@<TRIPOS>MOLECULE
VOL
   20    19     1     0     0
SMALL
bcc


@<TRIPOS>ATOM
      1 N           -1.2640    -0.9220    -0.3090 n8         1 VOL      -0.872800
      2 CA          -0.3810     0.2330    -0.2240 c3         1 VOL       0.161500
      3 CB           0.3690     0.4040     1.1140 c3         1 VOL      -0.101700
      4 CG1         -0.6090     0.5540     2.2750 c3         1 VOL      -0.090100
      5 CG2          1.3630    -0.7190     1.4020 c3         1 VOL      -0.090100
      6 CH2          0.5910     0.2250    -1.3940 c3         1 VOL       0.149400
      7 OH          -0.1180     0.4010    -2.6000 oh         1 VOL      -0.580800
      8 HN1         -0.7350    -1.7770    -0.1810 hn         1 VOL       0.336800
      9 HN2         -1.9440    -0.8950     0.4400 hn         1 VOL       0.336800
     10 HA          -1.0120     1.1240    -0.3380 h1         1 VOL       0.071700
     11 HB           0.9330     1.3410     1.0360 hc         1 VOL       0.051700
     12 HG1         -0.0830     0.8080     3.1970 hc         1 VOL       0.033867
     13 HG2         -1.3410     1.3430     2.0860 hc         1 VOL       0.033867
     14 HG3         -1.1580    -0.3710     2.4650 hc         1 VOL       0.033867
     15 H21          0.8660    -1.6910     1.4510 hc         1 VOL       0.033867
     16 H22          2.1490    -0.7860     0.6480 hc         1 VOL       0.033867
     17 H23          1.8510    -0.5620     2.3650 hc         1 VOL       0.033867
     18 HH1          1.1500    -0.7220    -1.4000 h1         1 VOL       0.014200
     19 HH2          1.3270     1.0250    -1.2420 h1         1 VOL       0.014200
     20 HH           0.5140     0.3590    -3.3220 ho         1 VOL       0.397000
@<TRIPOS>BOND
     1     1     2 1   
     2     1     8 1   
     3     1     9 1   
     4     2     3 1   
     5     2     6 1   
     6     2    10 1   
     7     3     4 1   
     8     3     5 1   
     9     3    11 1   
    10     4    12 1   
    11     4    13 1   
    12     4    14 1   
    13     5    15 1   
    14     5    16 1   
    15     5    17 1   
    16     6     7 1   
    17     6    18 1   
    18     6    19 1   
    19     7    20 1   
@<TRIPOS>SUBSTRUCTURE
     1 VOL         1 TEMP              0 ****  ****    0 ROOT
