@<TRIPOS>MOLECULE
VOL
   20    19     1     0     0
SMALL
No Charge or Current Charge


@<TRIPOS>ATOM
      1 N           -1.2520    -0.9620    -0.2600 n8         1 VOL      -0.872800
      2 CA          -0.3830     0.2430    -0.2440 c3         1 VOL       0.161500
      3 CB           0.3480     0.3770     1.1290 c3         1 VOL      -0.101700
      4 CG1         -0.6400     0.5880     2.3050 c3         1 VOL      -0.090100
      5 CG2          1.3330    -0.7820     1.4360 c3         1 VOL      -0.090100
      6 CH2          0.5960     0.2790    -1.4630 c3         1 VOL       0.149400
      7 OH          -0.1160     0.4030    -2.7050 oh         1 VOL      -0.580800
      8 HN1         -0.6590    -1.7930    -0.1920 hn         1 VOL       0.336800
      9 HN2         -1.8050    -0.9760     0.6010 hn         1 VOL       0.336800
     10 HA          -1.0400     1.1190    -0.3410 h1         1 VOL       0.071700
     11 HB           0.9510     1.2930     1.0710 hc         1 VOL       0.051700
     12 HG1         -0.0940     0.8160     3.2290 hc         1 VOL       0.033867
     13 HG2         -1.3160     1.4270     2.0990 hc         1 VOL       0.033867
     14 HG3         -1.2460    -0.3080     2.4840 hc         1 VOL       0.033867
     15 H21          0.8080    -1.7420     1.5130 hc         1 VOL       0.033867
     16 H22          2.1010    -0.8690     0.6590 hc         1 VOL       0.033867
     17 H23          1.8480    -0.6040     2.3880 hc         1 VOL       0.033867
     18 HH1          1.2070    -0.6330    -1.4720 h1         1 VOL       0.014200
     19 HH2          1.2770     1.1320    -1.3450 h1         1 VOL       0.014200
     20 HH           0.5510     0.3630    -3.4220 ho         1 VOL       0.397000
@<TRIPOS>BOND
     1     1     2 1   
     2     1     8 1   
     3     1     9 1   
     4     2     3 1   
     5     2     6 1   
     6     2    10 1   
     7     3     4 1   
     8     3     5 1   
     9     3    11 1   
    10     4    12 1   
    11     4    13 1   
    12     4    14 1   
    13     5    15 1   
    14     5    16 1   
    15     5    17 1   
    16     6     7 1   
    17     6    18 1   
    18     6    19 1   
    19     7    20 1   
@<TRIPOS>SUBSTRUCTURE
     1 VOL         1 TEMP              0 ****  ****    0 ROOT
