@<TRIPOS>MOLECULE
VOM
   47    50     1     0     0
SMALL
No Charge or Current Charge


@<TRIPOS>ATOM
      1 C4           8.2360   -21.6380    10.5170 ca         1 VOM      -0.131000
      2 C7           7.4600   -19.7320     8.6100 ca         1 VOM      -0.077000
      3 C6           6.4980   -20.3070     9.4570 ca         1 VOM      -0.140000
      4 O15         11.0190   -21.6130    11.2380 os         1 VOM      -0.357100
      5 C20         10.7490   -15.8030    13.2390 ca         1 VOM      -0.180600
      6 C21         10.9300   -16.1430    14.6000 ca         1 VOM      -0.079000
      7 C8           8.8160   -20.1040     8.7100 ca         1 VOM      -0.002200
      8 C18         10.8990   -18.1830    12.6690 ca         1 VOM      -0.112000
      9 C16         11.0400   -20.5340    12.1170 ca         1 VOM       0.029100
     10 C19         10.7360   -16.8390    12.2810 ca         1 VOM      -0.012000
     11 C1          10.9590   -22.8570     9.1980 c3         1 VOM      -0.088100
     12 C2          10.6900   -21.4830     9.8390 c3         1 VOM       0.219600
     13 C3           9.2180   -21.0620     9.6800 ca         1 VOM      -0.072300
     14 C5           6.8900   -21.2610    10.4050 ca         1 VOM       0.182000
     15 N9           9.7330   -19.5200     7.8350 na         1 VOM       0.207000
     16 C10         10.2480   -20.1720     6.7260 cc         1 VOM      -0.159000
     17 C11         11.0930   -19.2270     6.2150 cd         1 VOM      -0.228000
     18 C12         11.0200   -18.0830     7.0470 cd         1 VOM       0.247900
     19 N13         10.1840   -18.2410     8.0580 nc         1 VOM      -0.525800
     20 F14          5.9670   -21.8190    11.2180 f          1 VOM      -0.170000
     21 C17         10.8790   -19.1990    11.6930 ca         1 VOM      -0.116000
     22 C22         11.0930   -17.4860    14.9830 ca         1 VOM      -0.109000
     23 C23         11.0810   -18.5220    14.0350 ca         1 VOM       0.324000
     24 N24         11.2430   -19.8030    14.4430 nb         1 VOM      -0.766000
     25 C25         11.2270   -20.7490    13.5080 ca         1 VOM       0.643900
     26 N26         11.3910   -21.9500    14.0830 nv         1 VOM      -1.079900
     27 O28         10.4150   -14.0640    11.6160 o          1 VOM      -0.611100
     28 N29         10.5860   -13.3970    13.7210 nt         1 VOM      -0.604000
     29 H1           8.5140   -22.3800    11.2610 ha         1 VOM       0.145000
     30 H2           7.1520   -18.9960     7.8700 ha         1 VOM       0.135000
     31 H3           5.4530   -20.0200     9.3770 ha         1 VOM       0.142000
     32 H4          10.9480   -15.3810    15.3740 ha         1 VOM       0.108000
     33 H5          10.5970   -16.6020    11.2270 ha         1 VOM       0.140000
     34 H6          12.0120   -23.1360     9.3190 hc         1 VOM       0.051367
     35 H7          10.3380   -23.6320     9.6620 hc         1 VOM       0.051367
     36 H8          10.7330   -22.8310     8.1260 hc         1 VOM       0.051367
     37 H9          11.3600   -20.7520     9.3670 h1         1 VOM       0.078700
     38 H10          9.9800   -21.1760     6.4230 h4         1 VOM       0.157000
     39 H11         11.7090   -19.3280     5.3280 ha         1 VOM       0.149000
     40 H12         11.5540   -17.1470     6.9400 h4         1 VOM       0.043100
     41 H13         10.7430   -18.9430    10.6470 ha         1 VOM       0.153000
     42 H14         11.2310   -17.7280    16.0330 ha         1 VOM       0.128000
     43 H15         11.2030   -21.9650    15.0760 hn         1 VOM       0.495500
     44 H16         11.0800   -22.7510    13.5450 hn         1 VOM       0.495500
     45 H17         10.4680   -12.4380    13.4330 hn         1 VOM       0.311000
     46 H18         10.7130   -13.6290    14.6930 hn         1 VOM       0.311000
     47 C27         10.5710   -14.3710    12.7860 c          1 VOM       0.619700
@<TRIPOS>BOND
     1     1    13 ar  
     2     1    14 ar  
     3     1    29 1   
     4     2     3 ar  
     5     2     7 ar  
     6     2    30 1   
     7     3    14 ar  
     8     3    31 1   
     9     4     9 1   
    10     4    12 1   
    11     5     6 ar  
    12     5    10 ar  
    13     5    47 1   
    14     6    22 ar  
    15     6    32 1   
    16     7    13 ar  
    17     7    15 1   
    18     8    10 ar  
    19     8    21 ar  
    20     8    23 ar  
    21     9    21 ar  
    22     9    25 ar  
    23    10    33 1   
    24    11    12 1   
    25    11    34 1   
    26    11    35 1   
    27    11    36 1   
    28    12    13 1   
    29    12    37 1   
    30    14    20 1   
    31    15    16 1   
    32    15    19 1   
    33    16    17 2   
    34    16    38 1   
    35    17    18 1   
    36    17    39 1   
    37    18    19 2   
    38    18    40 1   
    39    21    41 1   
    40    22    23 ar  
    41    22    42 1   
    42    23    24 ar  
    43    24    25 ar  
    44    25    26 1   
    45    26    43 1   
    46    26    44 1   
    47    27    47 2   
    48    28    45 1   
    49    28    46 1   
    50    28    47 1   
@<TRIPOS>SUBSTRUCTURE
     1 VOM         1 TEMP              0 ****  ****    0 ROOT
