@<TRIPOS>MOLECULE
VOM
   47    50     1     0     0
SMALL
abcg2


@<TRIPOS>ATOM
      1 C4           8.2880   -21.6350    10.5890 ca         1 VOM      -0.131000
      2 C7           7.4530   -20.0930     8.4450 ca         1 VOM      -0.077000
      3 C6           6.5030   -20.6720     9.2690 ca         1 VOM      -0.140000
      4 O15         10.9850   -21.5120    11.3670 os         1 VOM      -0.357100
      5 C20         10.7180   -15.7400    13.2990 ca         1 VOM      -0.180600
      6 C21         10.8400   -16.1040    14.6560 ca         1 VOM      -0.079000
      7 C8           8.8070   -20.2830     8.6860 ca         1 VOM      -0.002200
      8 C18         10.8200   -18.0830    12.6970 ca         1 VOM      -0.112000
      9 C16         10.9520   -20.4120    12.1440 ca         1 VOM       0.029100
     10 C19         10.6940   -16.7330    12.3420 ca         1 VOM      -0.012000
     11 C1          11.0760   -22.7030     9.3300 c3         1 VOM      -0.088100
     12 C2          10.7070   -21.3820     9.9800 c3         1 VOM       0.219600
     13 C3           9.2420   -21.0650     9.7550 ca         1 VOM      -0.072300
     14 C5           6.9480   -21.4280    10.3350 ca         1 VOM       0.182000
     15 N9           9.7370   -19.6670     7.8120 na         1 VOM       0.207000
     16 C10          9.9240   -19.9320     6.5020 cc         1 VOM      -0.159000
     17 C11         10.8900   -19.0630     6.0580 cd         1 VOM      -0.228000
     18 C12         11.2240   -18.3050     7.1940 cd         1 VOM       0.247900
     19 N13         10.5180   -18.6730     8.2450 nc         1 VOM      -0.525800
     20 F14          6.0470   -21.9860    11.1540 f          1 VOM      -0.170000
     21 C17         10.8160   -19.1280    11.7310 ca         1 VOM      -0.116000
     22 C22         10.9500   -17.4190    15.0260 ca         1 VOM      -0.109000
     23 C23         10.9520   -18.4430    14.0570 ca         1 VOM       0.324000
     24 N24         11.0710   -19.7300    14.4560 nb         1 VOM      -0.766000
     25 C25         11.0740   -20.6830    13.5590 ca         1 VOM       0.643900
     26 N26         11.2220   -21.9590    13.9620 nv         1 VOM      -1.079900
     27 O28         10.1430   -14.0460    11.7410 o          1 VOM      -0.611100
     28 N29         10.9830   -13.3790    13.7190 nt         1 VOM      -0.604000
     29 H1           8.5800   -22.2490    11.4320 ha         1 VOM       0.145000
     30 H2           7.1390   -19.4780     7.6120 ha         1 VOM       0.135000
     31 H3           5.4460   -20.5260     9.0900 ha         1 VOM       0.142000
     32 H4          10.8200   -15.3510    15.4340 ha         1 VOM       0.108000
     33 H5          10.5880   -16.4750    11.2960 ha         1 VOM       0.140000
     34 H6          12.1370   -22.9120     9.4650 hc         1 VOM       0.051367
     35 H7          10.4970   -23.5260     9.7490 hc         1 VOM       0.051367
     36 H8          10.8760   -22.6560     8.2600 hc         1 VOM       0.051367
     37 H9          11.3380   -20.5950     9.5600 h1         1 VOM       0.078700
     38 H10          9.3700   -20.7070     5.9970 h4         1 VOM       0.157000
     39 H11         11.2980   -18.9880     5.0650 ha         1 VOM       0.149000
     40 H12         11.9450   -17.5070     7.2790 h4         1 VOM       0.043100
     41 H13         10.7140   -18.8660    10.6830 ha         1 VOM       0.153000
     42 H14         11.0330   -17.6910    16.0700 ha         1 VOM       0.128000
     43 H15         11.1900   -22.1570    14.9470 hn         1 VOM       0.495500
     44 H16         11.0660   -22.7270    13.3340 hn         1 VOM       0.495500
     45 H17         10.9510   -12.4110    13.4430 hn         1 VOM       0.311000
     46 H18         11.4970   -13.5920    14.5550 hn         1 VOM       0.311000
     47 C27         10.5890   -14.3230    12.8480 c          1 VOM       0.619700
@<TRIPOS>BOND
     1     1    13 ar  
     2     1    14 ar  
     3     1    29 1   
     4     2     3 ar  
     5     2     7 ar  
     6     2    30 1   
     7     3    14 ar  
     8     3    31 1   
     9     4     9 1   
    10     4    12 1   
    11     5     6 ar  
    12     5    10 ar  
    13     5    47 1   
    14     6    22 ar  
    15     6    32 1   
    16     7    13 ar  
    17     7    15 1   
    18     8    10 ar  
    19     8    21 ar  
    20     8    23 ar  
    21     9    21 ar  
    22     9    25 ar  
    23    10    33 1   
    24    11    12 1   
    25    11    34 1   
    26    11    35 1   
    27    11    36 1   
    28    12    13 1   
    29    12    37 1   
    30    14    20 1   
    31    15    16 1   
    32    15    19 1   
    33    16    17 2   
    34    16    38 1   
    35    17    18 1   
    36    17    39 1   
    37    18    19 2   
    38    18    40 1   
    39    21    41 1   
    40    22    23 ar  
    41    22    42 1   
    42    23    24 ar  
    43    24    25 ar  
    44    25    26 1   
    45    26    43 1   
    46    26    44 1   
    47    27    47 2   
    48    28    45 1   
    49    28    46 1   
    50    28    47 1   
@<TRIPOS>SUBSTRUCTURE
     1 VOM         1 TEMP              0 ****  ****    0 ROOT
