@<TRIPOS>MOLECULE
VON
   22    22     1     0     0
SMALL
abcg2


@<TRIPOS>ATOM
      1 O11        -31.5570     6.3270   -13.1200 o          1 VON      -0.727500
      2 N1         -28.6710     7.5410    -9.3710 n7         1 VON      -0.898400
      3 C2         -28.9550     6.3140    -8.6450 c6         1 VON       0.354500
      4 C3         -29.2430     5.1450    -9.5810 c6         1 VON       0.094300
      5 C4         -30.4010     5.4760   -10.5210 c6         1 VON       0.193300
      6 C5         -30.1550     6.7990   -11.2460 c6         1 VON      -0.220700
      7 C6         -31.3400     7.1400   -12.1850 c          1 VON       0.734000
      8 C7         -29.7930     7.9060   -10.2520 c6         1 VON       0.170800
      9 O9         -29.6050     3.9650    -8.8590 oh         1 VON      -0.679000
     10 O10        -31.6250     5.5700    -9.7820 oh         1 VON      -0.705000
     11 O12        -31.9830     8.1940   -11.9550 o          1 VON      -0.727500
     12 H3         -29.8350     6.4940    -8.0200 h2         1 VON       0.062700
     13 H4         -28.3440     4.9610   -10.1820 h1         1 VON       0.041700
     14 H5         -30.4880     4.6730   -11.2600 h1         1 VON       0.062700
     15 H6         -29.2880     6.6310   -11.8950 hc         1 VON       0.031700
     16 H7         -29.5270     8.8170   -10.7860 h1         1 VON       0.066700
     17 H8         -30.6550     8.1410    -9.6260 h1         1 VON       0.066700
     18 H10        -29.0040     3.8870    -8.1060 ho         1 VON       0.445000
     19 H11        -31.6370     4.8210    -9.1700 ho         1 VON       0.486000
     20 O8         -27.8480     5.9320    -7.8450 oh         1 VON      -0.754000
     21 H9         -27.7400     6.5900    -7.1450 ho         1 VON       0.507000
     22 H1         -27.8380     7.3880    -9.9360 hn         1 VON       0.395000
@<TRIPOS>BOND
     1     1     7 1   
     2     2     3 1   
     3     2     8 1   
     4     2    22 1   
     5     3     4 1   
     6     3    12 1   
     7     3    20 1   
     8     4     5 1   
     9     4     9 1   
    10     4    13 1   
    11     5     6 1   
    12     5    10 1   
    13     5    14 1   
    14     6     7 1   
    15     6     8 1   
    16     6    15 1   
    17     7    11 1   
    18     8    16 1   
    19     8    17 1   
    20     9    18 1   
    21    10    19 1   
    22    20    21 1   
@<TRIPOS>SUBSTRUCTURE
     1 VON         1 TEMP              0 ****  ****    0 ROOT
