@<TRIPOS>MOLECULE
VON
   22    22     1     0     0
SMALL
No Charge or Current Charge


@<TRIPOS>ATOM
      1 O11        -30.9720     7.1180   -13.4020 o          1 VON      -0.727500
      2 N1         -28.6530     7.4540    -9.3490 n7         1 VON      -0.898400
      3 C2         -29.0160     6.2810    -8.5910 c6         1 VON       0.354500
      4 C3         -29.3490     5.0490    -9.5030 c6         1 VON       0.094300
      5 C4         -30.5070     5.4310   -10.4750 c6         1 VON       0.193300
      6 C5         -30.1610     6.7590   -11.2090 c6         1 VON      -0.220700
      7 C6         -31.2430     7.2010   -12.2120 c          1 VON       0.734000
      8 C7         -29.7740     7.8890   -10.2240 c6         1 VON       0.170800
      9 O9         -29.6890     3.8820    -8.7210 oh         1 VON      -0.679000
     10 O10        -31.7310     5.5150    -9.7310 oh         1 VON      -0.705000
     11 O12        -32.2630     7.7310   -11.7960 o          1 VON      -0.727500
     12 H3         -29.8620     6.5210    -7.9240 h2         1 VON       0.062700
     13 H4         -28.4600     4.8300   -10.1140 h1         1 VON       0.041700
     14 H5         -30.5920     4.6340   -11.2310 h1         1 VON       0.062700
     15 H6         -29.2740     6.5180   -11.8140 hc         1 VON       0.031700
     16 H7         -29.4740     8.7830   -10.7920 h1         1 VON       0.066700
     17 H8         -30.6450     8.1680    -9.6100 h1         1 VON       0.066700
     18 H10        -28.9840     3.8100    -8.0360 ho         1 VON       0.445000
     19 H11        -31.6490     4.7890    -9.0690 ho         1 VON       0.486000
     20 O8         -27.8400     6.1170    -7.8660 oh         1 VON      -0.754000
     21 H9         -27.5170     7.0450    -7.8550 ho         1 VON       0.507000
     22 H1         -27.8760     7.1880    -9.9630 hn         1 VON       0.395000
@<TRIPOS>BOND
     1     1     7 1   
     2     2     3 1   
     3     2     8 1   
     4     2    22 1   
     5     3     4 1   
     6     3    12 1   
     7     3    20 1   
     8     4     5 1   
     9     4     9 1   
    10     4    13 1   
    11     5     6 1   
    12     5    10 1   
    13     5    14 1   
    14     6     7 1   
    15     6     8 1   
    16     6    15 1   
    17     7    11 1   
    18     8    16 1   
    19     8    17 1   
    20     9    18 1   
    21    10    19 1   
    22    20    21 1   
@<TRIPOS>SUBSTRUCTURE
     1 VON         1 TEMP              0 ****  ****    0 ROOT
