@<TRIPOS>MOLECULE
VOO
   60    64     1     0     0
SMALL
abcg2


@<TRIPOS>ATOM
      1 O29          8.5020     5.8690    25.8030 o          1 VOO      -0.612100
      2 C8           9.4490     6.5920    25.4680 c          1 VOO       0.637300
      3 C7           9.8990     6.5640    24.0540 cc         1 VOO      -0.122300
      4 C6          10.2360     7.5680    23.1720 cd         1 VOO      -0.211200
      5 N30          9.8880     5.3630    23.3830 na         1 VOO      -0.187700
      6 C31         10.2120     5.5750    22.0650 ca         1 VOO      -0.082200
      7 C5          10.4440     6.9610    21.8980 ca         1 VOO      -0.063800
      8 C4          10.8220     7.4650    20.6370 ca         1 VOO      -0.133000
      9 C2          10.9480     6.5400    19.6350 ca         1 VOO       0.167000
     10 F3          11.3190     6.9710    18.3920 f          1 VOO      -0.191000
     11 C32         10.3440     4.6460    21.0130 ca         1 VOO       0.293000
     12 N33         10.1450     3.2890    21.2660 nu         1 VOO      -0.919200
     13 C34         10.3120     2.3390    20.1750 c3         1 VOO       0.171100
     14 C1          10.7180     5.1650    19.7770 ca         1 VOO      -0.195000
     15 N9          10.0700     7.4240    26.3310 n          1 VOO      -0.400800
     16 C28         11.3120     8.1500    26.1020 c6         1 VOO       0.149300
     17 C27         11.1340     9.6230    26.3820 ca         1 VOO      -0.116300
     18 C12         10.0870    10.0770    27.1900 ca         1 VOO      -0.040300
     19 C11          9.0790     9.1130    27.7690 c6         1 VOO      -0.056100
     20 C10          9.5370     7.6600    27.6680 c6         1 VOO       0.096000
     21 C26         12.0270    10.5320    25.8230 ca         1 VOO      -0.078000
     22 C15         11.9050    11.9010    26.0550 ca         1 VOO      -0.146600
     23 C14         10.8690    12.3500    26.8770 ca         1 VOO      -0.048000
     24 C13          9.9730    11.4490    27.4280 ca         1 VOO      -0.119000
     25 C16         12.8280    12.9200    25.4590 c          1 VOO       0.618700
     26 O25         12.9240    14.0500    25.9430 o          1 VOO      -0.598100
     27 N17         13.5260    12.5300    24.3690 ns         1 VOO      -0.504900
     28 C18         14.4540    13.3840    23.6560 c3         1 VOO       0.090000
     29 C19         15.9020    12.9310    23.8180 c3         1 VOO       0.053600
     30 N20         16.3660    12.9660    25.1990 na         1 VOO       0.011000
     31 C24         16.4460    14.0980    25.9730 cc         1 VOO      -0.192500
     32 C23         17.2560    13.8300    27.0530 cd         1 VOO      -0.178000
     33 C22         17.6960    12.4800    26.9250 cd         1 VOO      -0.178000
     34 C21         17.1470    11.9850    25.7660 cc         1 VOO      -0.192500
     35 H1          10.3060     8.6170    23.4080 ha         1 VOO       0.210000
     36 H2           9.5820     4.4930    23.7870 hn         1 VOO       0.368000
     37 H3          11.0370     8.5110    20.4670 ha         1 VOO       0.134000
     38 H4           9.2910     3.1170    21.7830 hn         1 VOO       0.446000
     39 H5          10.2190     1.3310    20.5760 h1         1 VOO       0.041033
     40 H6           9.5790     2.4680    19.3680 h1         1 VOO       0.041033
     41 H7          11.3110     2.4400    19.7500 h1         1 VOO       0.041033
     42 H8          10.8120     4.5360    18.9050 ha         1 VOO       0.133000
     43 H9          12.0730     7.7320    26.7720 h1         1 VOO       0.065700
     44 H10         11.6570     7.9950    25.0870 h1         1 VOO       0.065700
     45 H11          8.8730     9.3620    28.8120 hc         1 VOO       0.064700
     46 H12          8.1340     9.2310    27.2290 hc         1 VOO       0.064700
     47 H13          8.7250     6.9690    27.8630 h1         1 VOO       0.067700
     48 H14         10.3380     7.4680    28.3870 h1         1 VOO       0.067700
     49 H15         12.8420    10.1430    25.2240 ha         1 VOO       0.110000
     50 H16         10.7660    13.4090    27.0640 ha         1 VOO       0.141000
     51 H17          9.1690    11.8090    28.0590 ha         1 VOO       0.120000
     52 H18         13.2960    11.6460    23.9450 hn         1 VOO       0.311500
     53 H19         14.3170    14.4040    24.0060 h1         1 VOO       0.066200
     54 H20         14.2160    13.3600    22.5910 h1         1 VOO       0.066200
     55 H21         15.9970    11.9000    23.4770 h1         1 VOO       0.055700
     56 H22         16.5480    13.5530    23.1940 h1         1 VOO       0.055700
     57 H24         15.9660    15.0090    25.6630 h4         1 VOO       0.141500
     58 H26         17.4500    14.4920    27.8820 ha         1 VOO       0.130000
     59 H28         18.3180    11.9340    27.6170 ha         1 VOO       0.130000
     60 H30         17.2450    11.0270    25.2840 h4         1 VOO       0.141500
@<TRIPOS>BOND
     1     1     2 2   
     2     2     3 1   
     3     2    15 1   
     4     3     4 2   
     5     3     5 1   
     6     4     7 1   
     7     4    35 1   
     8     5     6 1   
     9     5    36 1   
    10     6     7 ar  
    11     6    11 ar  
    12     7     8 ar  
    13     8     9 ar  
    14     8    37 1   
    15     9    10 1   
    16     9    14 ar  
    17    11    12 1   
    18    11    14 ar  
    19    12    13 1   
    20    12    38 1   
    21    13    39 1   
    22    13    40 1   
    23    13    41 1   
    24    14    42 1   
    25    15    16 1   
    26    15    20 1   
    27    16    17 1   
    28    16    43 1   
    29    16    44 1   
    30    17    18 ar  
    31    17    21 ar  
    32    18    19 1   
    33    18    24 ar  
    34    19    20 1   
    35    19    45 1   
    36    19    46 1   
    37    20    47 1   
    38    20    48 1   
    39    21    22 ar  
    40    21    49 1   
    41    22    23 ar  
    42    22    25 1   
    43    23    24 ar  
    44    23    50 1   
    45    24    51 1   
    46    25    26 2   
    47    25    27 1   
    48    27    28 1   
    49    27    52 1   
    50    28    29 1   
    51    28    53 1   
    52    28    54 1   
    53    29    30 1   
    54    29    55 1   
    55    29    56 1   
    56    30    31 1   
    57    30    34 1   
    58    31    32 2   
    59    31    57 1   
    60    32    33 1   
    61    32    58 1   
    62    33    34 2   
    63    33    59 1   
    64    34    60 1   
@<TRIPOS>SUBSTRUCTURE
     1 VOO         1 TEMP              0 ****  ****    0 ROOT
