@<TRIPOS>MOLECULE
VOO
   60    64     1     0     0
SMALL
No Charge or Current Charge


@<TRIPOS>ATOM
      1 O29          9.5240     5.1640    26.2630 o          1 VOO      -0.612100
      2 C8           9.9070     6.1270    25.6080 c          1 VOO       0.637300
      3 C7          10.0120     6.0650    24.1170 cc         1 VOO      -0.122300
      4 C6          10.1070     7.1330    23.2230 cd         1 VOO      -0.211200
      5 N30          9.9120     4.9320    23.2750 na         1 VOO      -0.187700
      6 C31          9.9910     5.3030    21.9340 ca         1 VOO      -0.082200
      7 C5          10.1090     6.6630    21.8650 ca         1 VOO      -0.063800
      8 C4          10.1980     7.3500    20.6510 ca         1 VOO      -0.133000
      9 C2          10.1660     6.5810    19.4730 ca         1 VOO       0.167000
     10 F3          10.2500     7.1970    18.2730 f          1 VOO      -0.191000
     11 C32          9.9560     4.5080    20.7690 ca         1 VOO       0.293000
     12 N33          9.8350     3.1130    20.8410 nu         1 VOO      -0.919200
     13 C34          9.7690     2.1640    19.7130 c3         1 VOO       0.171100
     14 C1          10.0470     5.1750    19.5260 ca         1 VOO      -0.195000
     15 N9          10.2390     7.3470    26.2390 n          1 VOO      -0.400800
     16 C28         11.4830     8.0880    25.8990 c6         1 VOO       0.149300
     17 C27         11.3810     9.5890    26.1830 ca         1 VOO      -0.116300
     18 C12         10.4310    10.0780    27.1030 ca         1 VOO      -0.040300
     19 C11          9.4430     9.1310    27.7910 c6         1 VOO      -0.056100
     20 C10          9.7970     7.6350    27.6240 c6         1 VOO       0.096000
     21 C26         12.2620    10.4800    25.5390 ca         1 VOO      -0.078000
     22 C15         12.2050    11.8710    25.7980 ca         1 VOO      -0.146600
     23 C14         11.2450    12.3450    26.7200 ca         1 VOO      -0.048000
     24 C13         10.3680    11.4570    27.3630 ca         1 VOO      -0.119000
     25 C16         13.1370    12.8600    25.1270 c          1 VOO       0.618700
     26 O25         13.0930    14.0600    25.3640 o          1 VOO      -0.598100
     27 N17         14.0400    12.3400    24.2210 ns         1 VOO      -0.504900
     28 C18         15.0980    13.1110    23.5500 c3         1 VOO       0.090000
     29 C19         16.4730    12.9590    24.2350 c3         1 VOO       0.053600
     30 N20         16.5060    13.4450    25.6240 na         1 VOO       0.011000
     31 C24         16.7440    14.7690    26.0030 cc         1 VOO      -0.192500
     32 C23         16.6950    14.7850    27.3700 cd         1 VOO      -0.178000
     33 C22         16.4320    13.4830    27.8320 cd         1 VOO      -0.178000
     34 C21         16.3150    12.6470    26.7560 cc         1 VOO      -0.192500
     35 H1          10.1040     8.1840    23.5030 ha         1 VOO       0.210000
     36 H2           9.7840     3.9830    23.6110 hn         1 VOO       0.368000
     37 H3          10.2880     8.4320    20.6150 ha         1 VOO       0.134000
     38 H4           9.7910     2.7110    21.7770 hn         1 VOO       0.446000
     39 H5           9.6730     1.1340    20.0830 h1         1 VOO       0.041033
     40 H6           8.9020     2.3840    19.0750 h1         1 VOO       0.041033
     41 H7          10.6790     2.2280    19.1010 h1         1 VOO       0.041033
     42 H8          10.0250     4.6150    18.5980 ha         1 VOO       0.133000
     43 H9          12.2980     7.6840    26.5170 h1         1 VOO       0.065700
     44 H10         11.7920     7.9230    24.8610 h1         1 VOO       0.065700
     45 H11          9.3660     9.3710    28.8600 hc         1 VOO       0.064700
     46 H12          8.4460     9.3050    27.3650 hc         1 VOO       0.064700
     47 H13          8.9230     7.0240    27.8900 h1         1 VOO       0.067700
     48 H14         10.6080     7.3710    28.3190 h1         1 VOO       0.067700
     49 H15         12.9890    10.0710    24.8430 ha         1 VOO       0.110000
     50 H16         11.1740    13.4080    26.9420 ha         1 VOO       0.141000
     51 H17          9.6320    11.8450    28.0650 ha         1 VOO       0.120000
     52 H18         14.0020    11.3420    24.0630 hn         1 VOO       0.311500
     53 H19         14.8230    14.1740    23.5170 h1         1 VOO       0.066200
     54 H20         15.1770    12.7590    22.5130 h1         1 VOO       0.066200
     55 H21         16.7670    11.9020    24.2260 h1         1 VOO       0.055700
     56 H22         17.2220    13.5160    23.6570 h1         1 VOO       0.055700
     57 H24         16.9190    15.5630    25.2870 h4         1 VOO       0.141500
     58 H26         16.8370    15.6630    27.9950 ha         1 VOO       0.130000
     59 H28         16.3360    13.1860    28.8730 ha         1 VOO       0.130000
     60 H30         16.1150    11.5840    26.6980 h4         1 VOO       0.141500
@<TRIPOS>BOND
     1     1     2 2   
     2     2     3 1   
     3     2    15 1   
     4     3     4 2   
     5     3     5 1   
     6     4     7 1   
     7     4    35 1   
     8     5     6 1   
     9     5    36 1   
    10     6     7 ar  
    11     6    11 ar  
    12     7     8 ar  
    13     8     9 ar  
    14     8    37 1   
    15     9    10 1   
    16     9    14 ar  
    17    11    12 1   
    18    11    14 ar  
    19    12    13 1   
    20    12    38 1   
    21    13    39 1   
    22    13    40 1   
    23    13    41 1   
    24    14    42 1   
    25    15    16 1   
    26    15    20 1   
    27    16    17 1   
    28    16    43 1   
    29    16    44 1   
    30    17    18 ar  
    31    17    21 ar  
    32    18    19 1   
    33    18    24 ar  
    34    19    20 1   
    35    19    45 1   
    36    19    46 1   
    37    20    47 1   
    38    20    48 1   
    39    21    22 ar  
    40    21    49 1   
    41    22    23 ar  
    42    22    25 1   
    43    23    24 ar  
    44    23    50 1   
    45    24    51 1   
    46    25    26 2   
    47    25    27 1   
    48    27    28 1   
    49    27    52 1   
    50    28    29 1   
    51    28    53 1   
    52    28    54 1   
    53    29    30 1   
    54    29    55 1   
    55    29    56 1   
    56    30    31 1   
    57    30    34 1   
    58    31    32 2   
    59    31    57 1   
    60    32    33 1   
    61    32    58 1   
    62    33    34 2   
    63    33    59 1   
    64    34    60 1   
@<TRIPOS>SUBSTRUCTURE
     1 VOO         1 TEMP              0 ****  ****    0 ROOT
