@<TRIPOS>MOLECULE
VOP
   51    55     1     0     0
SMALL
abcg2


@<TRIPOS>ATOM
      1 C4           9.5150   -21.2560    11.3950 ca         1 VOP      -0.052000
      2 C7           8.8090   -19.7640     9.0880 ca         1 VOP      -0.025000
      3 C6           7.8150   -20.3380     9.8830 ca         1 VOP      -0.240900
      4 C8          10.1220   -19.9430     9.4570 ca         1 VOP      -0.060200
      5 C26         11.5570   -15.5440    14.4540 ca         1 VOP       0.140000
      6 C1          12.3990   -22.2740    10.2140 c3         1 VOP      -0.088100
      7 C2          11.9510   -20.9910    10.8930 c3         1 VOP       0.224600
      8 C3          10.4920   -20.7030    10.5970 ca         1 VOP      -0.108300
      9 C5           8.1790   -21.0510    11.0380 ca         1 VOP      -0.021200
     10 N9          11.1290   -19.3330     8.6650 na         1 VOP       0.236000
     11 C10         11.4760   -19.6450     7.3980 cc         1 VOP      -0.158000
     12 C11         12.4540   -18.7550     7.0260 cd         1 VOP      -0.252000
     13 C12         12.6260   -17.9370     8.1560 cd         1 VOP       0.225900
     14 N13         11.8180   -18.2900     9.1360 nc         1 VOP      -0.526800
     15 C14          6.3980   -20.3850     9.8830 cc         1 VOP       0.324800
     16 N15          5.9630   -21.0440    10.9280 nd         1 VOP      -0.500100
     17 N16          7.0290   -21.4320    11.6340 na         1 VOP       0.162600
     18 C17          6.8850   -22.2480    12.8100 c3         1 VOP      -0.088400
     19 O19          7.4590   -24.1170    11.4370 o          1 VOP      -0.706000
     20 O20          6.9200   -24.4600    13.5850 o          1 VOP      -0.706000
     21 O21         12.1590   -21.1710    12.2870 os         1 VOP      -0.351100
     22 C22         12.0400   -20.1110    13.1080 ca         1 VOP       0.067100
     23 C23         11.8950   -18.8120    12.7410 ca         1 VOP      -0.142000
     24 C24         11.7950   -17.8130    13.7460 ca         1 VOP      -0.063000
     25 C25         11.6540   -16.4480    13.4340 ca         1 VOP      -0.121000
     26 C27         11.5930   -15.9250    15.7970 ca         1 VOP      -0.148000
     27 C28         11.7310   -17.2560    16.1070 ca         1 VOP      -0.072000
     28 C29         11.8360   -18.2300    15.0940 ca         1 VOP       0.284000
     29 N30         11.9640   -19.5350    15.4440 nb         1 VOP      -0.759000
     30 C31         12.0620   -20.4440    14.5140 ca         1 VOP       0.619900
     31 N32         12.2300   -21.7420    14.8700 nv         1 VOP      -1.058900
     32 H1           9.7730   -21.8390    12.2690 ha         1 VOP       0.142000
     33 H2           8.5640   -19.1750     8.2130 ha         1 VOP       0.116000
     34 H3          13.4520   -22.4700    10.4170 hc         1 VOP       0.050033
     35 H4          11.8060   -23.1250    10.5500 hc         1 VOP       0.050033
     36 H5          12.2770   -22.1820     9.1360 hc         1 VOP       0.050033
     37 H6          12.5820   -20.1710    10.5400 h1         1 VOP       0.061700
     38 H7          11.0130   -20.4630     6.8720 h4         1 VOP       0.158000
     39 H8          12.9700   -18.7040     6.0820 ha         1 VOP       0.136000
     40 H9          13.3040   -17.1070     8.2860 h4         1 VOP       0.028100
     41 H10          5.7080   -19.9600     9.1700 h4         1 VOP       0.034800
     42 H11          7.5880   -21.8940    13.5690 h1         1 VOP       0.052700
     43 H12          5.8840   -22.0760    13.2060 h1         1 VOP       0.052700
     44 H14         11.8580   -18.5060    11.7010 ha         1 VOP       0.154000
     45 H15         11.6220   -16.1250    12.4000 ha         1 VOP       0.134000
     46 H16         11.5120   -15.1780    16.5760 ha         1 VOP       0.121000
     47 H17         11.7610   -17.5760    17.1410 ha         1 VOP       0.124000
     48 H18         12.0390   -21.9740    15.8310 hn         1 VOP       0.486500
     49 H19         12.0220   -22.4650    14.2030 hn         1 VOP       0.486500
     50 C18          7.1110   -23.7630    12.5730 c          1 VOP       0.716000
     51 F33         11.4190   -14.2360    14.1690 f          1 VOP      -0.192000
@<TRIPOS>BOND
     1     1     8 ar  
     2     1     9 ar  
     3     1    32 1   
     4     2     3 ar  
     5     2     4 ar  
     6     2    33 1   
     7     3     9 ar  
     8     3    15 1   
     9     4     8 ar  
    10     4    10 1   
    11     5    25 ar  
    12     5    26 ar  
    13     5    51 1   
    14     6     7 1   
    15     6    34 1   
    16     6    35 1   
    17     6    36 1   
    18     7     8 1   
    19     7    21 1   
    20     7    37 1   
    21     9    17 1   
    22    10    11 1   
    23    10    14 1   
    24    11    12 2   
    25    11    38 1   
    26    12    13 1   
    27    12    39 1   
    28    13    14 2   
    29    13    40 1   
    30    15    16 2   
    31    15    41 1   
    32    16    17 1   
    33    17    18 1   
    34    18    42 1   
    35    18    43 1   
    36    18    50 1   
    37    19    50 1   
    38    20    50 1   
    39    21    22 1   
    40    22    23 ar  
    41    22    30 ar  
    42    23    24 ar  
    43    23    44 1   
    44    24    25 ar  
    45    24    28 ar  
    46    25    45 1   
    47    26    27 ar  
    48    26    46 1   
    49    27    28 ar  
    50    27    47 1   
    51    28    29 ar  
    52    29    30 ar  
    53    30    31 1   
    54    31    48 1   
    55    31    49 1   
@<TRIPOS>SUBSTRUCTURE
     1 VOP         1 TEMP              0 ****  ****    0 ROOT
