@<TRIPOS>MOLECULE
VOP
   51    55     1     0     0
SMALL
No Charge or Current Charge


@<TRIPOS>ATOM
      1 C4           9.4880   -21.4100    11.3090 ca         1 VOP      -0.052000
      2 C7           8.7550   -19.4750     9.3610 ca         1 VOP      -0.025000
      3 C6           7.8050   -20.1290    10.1520 ca         1 VOP      -0.240900
      4 C8          10.1180   -19.8030     9.5540 ca         1 VOP      -0.060200
      5 C26         11.5110   -15.5240    14.2510 ca         1 VOP       0.140000
      6 C1          12.3400   -22.4820    10.1610 c3         1 VOP      -0.088100
      7 C2          11.9690   -21.1310    10.7950 c3         1 VOP       0.224600
      8 C3          10.4950   -20.7710    10.5410 ca         1 VOP      -0.108300
      9 C5           8.1530   -21.0550    11.0780 ca         1 VOP      -0.021200
     10 N9          11.0680   -19.1690     8.7550 na         1 VOP       0.236000
     11 C10         11.7010   -19.7870     7.6890 cc         1 VOP      -0.158000
     12 C11         12.5330   -18.7970     7.2460 cd         1 VOP      -0.252000
     13 C12         12.3350   -17.6640     8.0710 cd         1 VOP       0.225900
     14 N13         11.4320   -17.8690     9.0120 nc         1 VOP      -0.526800
     15 C14          6.3680   -20.0270    10.2170 cc         1 VOP       0.324800
     16 N15          5.8480   -20.8450    11.1440 nd         1 VOP      -0.500100
     17 N16          6.9750   -21.4820    11.6590 na         1 VOP       0.162600
     18 C17          6.8960   -22.4580    12.7510 c3         1 VOP      -0.088400
     19 O19          8.1670   -24.4140    12.3510 o          1 VOP      -0.706000
     20 O20          6.0810   -24.4750    11.8140 o          1 VOP      -0.706000
     21 O21         12.2060   -21.2640    12.2120 os         1 VOP      -0.351100
     22 C22         12.1110   -20.1980    13.1010 ca         1 VOP       0.067100
     23 C23         11.9160   -18.8670    12.6790 ca         1 VOP      -0.142000
     24 C24         11.8160   -17.8650    13.6630 ca         1 VOP      -0.063000
     25 C25         11.6130   -16.5260    13.2760 ca         1 VOP      -0.121000
     26 C27         11.6090   -15.8480    15.6120 ca         1 VOP      -0.148000
     27 C28         11.8110   -17.1860    16.0000 ca         1 VOP      -0.072000
     28 C29         11.9180   -18.2130    15.0410 ca         1 VOP       0.284000
     29 N30         12.1140   -19.4910    15.4450 nb         1 VOP      -0.759000
     30 C31         12.2100   -20.4260    14.5020 ca         1 VOP       0.619900
     31 N32         12.3940   -21.6280    15.0740 nv         1 VOP      -1.058900
     32 H1           9.7420   -22.1520    12.0620 ha         1 VOP       0.142000
     33 H2           8.4540   -18.7380     8.6190 ha         1 VOP       0.116000
     34 H3          13.3950   -22.7170    10.3490 hc         1 VOP       0.050033
     35 H4          11.7250   -23.2900    10.5730 hc         1 VOP       0.050033
     36 H5          12.1860   -22.4530     9.0760 hc         1 VOP       0.050033
     37 H6          12.6350   -20.3650    10.3790 h1         1 VOP       0.061700
     38 H7          11.5100   -20.8030     7.3660 h4         1 VOP       0.158000
     39 H8          13.2210   -18.8620     6.4090 ha         1 VOP       0.136000
     40 H9          12.8250   -16.7000     8.0070 h4         1 VOP       0.028100
     41 H10          5.6780   -19.4090     9.6570 h4         1 VOP       0.034800
     42 H11          7.6780   -22.2410    13.4880 h1         1 VOP       0.052700
     43 H12          5.9230   -22.3720    13.2480 h1         1 VOP       0.052700
     44 H14         11.8410   -18.6040    11.6300 ha         1 VOP       0.154000
     45 H15         11.5340   -16.2600    12.2240 ha         1 VOP       0.134000
     46 H16         11.5280   -15.0670    16.3630 ha         1 VOP       0.121000
     47 H17         11.8870   -17.4320    17.0560 ha         1 VOP       0.124000
     48 H18         12.1510   -21.6700    16.0550 hn         1 VOP       0.486500
     49 H19         12.1730   -22.4400    14.5090 hn         1 VOP       0.486500
     50 C18          7.0640   -23.8950    12.2540 c          1 VOP       0.716000
     51 F33         11.3160   -14.2400    13.8790 f          1 VOP      -0.192000
@<TRIPOS>BOND
     1     1     8 ar  
     2     1     9 ar  
     3     1    32 1   
     4     2     3 ar  
     5     2     4 ar  
     6     2    33 1   
     7     3     9 ar  
     8     3    15 1   
     9     4     8 ar  
    10     4    10 1   
    11     5    25 ar  
    12     5    26 ar  
    13     5    51 1   
    14     6     7 1   
    15     6    34 1   
    16     6    35 1   
    17     6    36 1   
    18     7     8 1   
    19     7    21 1   
    20     7    37 1   
    21     9    17 1   
    22    10    11 1   
    23    10    14 1   
    24    11    12 2   
    25    11    38 1   
    26    12    13 1   
    27    12    39 1   
    28    13    14 2   
    29    13    40 1   
    30    15    16 2   
    31    15    41 1   
    32    16    17 1   
    33    17    18 1   
    34    18    42 1   
    35    18    43 1   
    36    18    50 1   
    37    19    50 1   
    38    20    50 1   
    39    21    22 1   
    40    22    23 ar  
    41    22    30 ar  
    42    23    24 ar  
    43    23    44 1   
    44    24    25 ar  
    45    24    28 ar  
    46    25    45 1   
    47    26    27 ar  
    48    26    46 1   
    49    27    28 ar  
    50    27    47 1   
    51    28    29 ar  
    52    29    30 ar  
    53    30    31 1   
    54    31    48 1   
    55    31    49 1   
@<TRIPOS>SUBSTRUCTURE
     1 VOP         1 TEMP              0 ****  ****    0 ROOT
