@<TRIPOS>MOLECULE
VOQ
   35    35     1     0     0
SMALL
No Charge or Current Charge


@<TRIPOS>ATOM
      1 N1          -2.8000    15.0760   -35.3860 n          1 VOQ      -0.398800
      2 C7          -4.2710    15.0570   -35.2740 c          1 VOQ       0.607100
      3 C8          -5.0430    16.0440   -34.2710 c3         1 VOQ       0.103200
      4 N2          -4.6870    15.8700   -32.8270 n8         1 VOQ      -1.000200
      5 C9          -4.7920    17.5290   -34.6480 c3         1 VOQ      -0.098100
      6 O1          -4.8920    14.2530   -35.9650 o          1 VOQ      -0.626100
      7 C1           0.2590    13.0930   -35.8050 cc         1 VOQ       0.292300
      8 C5          -2.0500    14.1840   -36.3590 c3         1 VOQ       0.167300
      9 C6          -1.8990    15.9940   -34.5940 c3         1 VOQ       0.085300
     10 C3          -1.4440    12.2460   -34.7410 cd         1 VOQ       0.228300
     11 C2          -1.1400    13.2050   -35.6530 cc         1 VOQ      -0.255300
     12 C10         -6.5700    15.7750   -34.3580 c3         1 VOQ      -0.098100
     13 O           -0.3100    11.5830   -34.3530 os         1 VOQ      -0.099700
     14 N            0.8060    12.1470   -35.0600 nd         1 VOQ      -0.363300
     15 H1          -5.2560    16.5080   -32.2600 hn         1 VOQ       0.401500
     16 H2          -4.9860    14.9400   -32.5130 hn         1 VOQ       0.401500
     17 H4          -5.4940    18.1910   -34.1260 hc         1 VOQ       0.046033
     18 H5          -3.7850    17.8620   -34.3830 hc         1 VOQ       0.046033
     19 H6          -4.9300    17.6800   -35.7260 hc         1 VOQ       0.046033
     20 H7          -1.4700    14.8220   -37.0380 h1         1 VOQ       0.068200
     21 H8          -2.7570    13.6200   -36.9810 h1         1 VOQ       0.068200
     22 H9          -2.2490    16.0930   -33.5610 h1         1 VOQ       0.049033
     23 H10         -0.8760    15.5970   -34.5630 h1         1 VOQ       0.049033
     24 H11         -1.8660    16.9810   -35.0700 h1         1 VOQ       0.049033
     25 H12         -2.6900    10.9040   -33.6020 hc         1 VOQ       0.068367
     26 H13         -3.1130    12.6180   -33.4400 hc         1 VOQ       0.068367
     27 H14         -3.5260    11.7380   -34.9230 hc         1 VOQ       0.068367
     28 H15         -7.1320    16.4080   -33.6600 hc         1 VOQ       0.046033
     29 H16         -6.9450    15.9790   -35.3690 hc         1 VOQ       0.046033
     30 H17         -6.7900    14.7270   -34.1220 hc         1 VOQ       0.046033
     31 H18          2.1270    13.7140   -36.6880 hc         1 VOQ       0.056367
     32 H19          0.7260    13.8500   -37.7640 hc         1 VOQ       0.056367
     33 H20          0.9580    15.0230   -36.4500 hc         1 VOQ       0.056367
     34 C            1.0610    13.9670   -36.7270 c3         1 VOQ      -0.135400
     35 C4          -2.7650    11.8540   -34.1440 c3         1 VOQ      -0.145400
@<TRIPOS>BOND
     1     1     2 1   
     2     1     8 1   
     3     1     9 1   
     4     2     3 1   
     5     2     6 2   
     6     3     4 1   
     7     3     5 1   
     8     3    12 1   
     9     4    15 1   
    10     4    16 1   
    11     5    17 1   
    12     5    18 1   
    13     5    19 1   
    14     7    11 1   
    15     7    14 2   
    16     7    34 1   
    17     8    11 1   
    18     8    20 1   
    19     8    21 1   
    20     9    22 1   
    21     9    23 1   
    22     9    24 1   
    23    10    11 2   
    24    10    13 1   
    25    10    35 1   
    26    12    28 1   
    27    12    29 1   
    28    12    30 1   
    29    13    14 1   
    30    25    35 1   
    31    26    35 1   
    32    27    35 1   
    33    31    34 1   
    34    32    34 1   
    35    33    34 1   
@<TRIPOS>SUBSTRUCTURE
     1 VOQ         1 TEMP              0 ****  ****    0 ROOT
