@<TRIPOS>MOLECULE
VOQ
   35    35     1     0     0
SMALL
abcg2


@<TRIPOS>ATOM
      1 N1          -2.8320    15.1340   -35.3390 n          1 VOQ      -0.398800
      2 C7          -4.1850    15.0710   -35.2520 c          1 VOQ       0.607100
      3 C8          -4.9600    16.0170   -34.2900 c3         1 VOQ       0.103200
      4 N2          -4.3980    15.9230   -32.9290 n8         1 VOQ      -1.000200
      5 C9          -4.8470    17.4650   -34.7890 c3         1 VOQ      -0.098100
      6 O1          -4.8260    14.2750   -35.9450 o          1 VOQ      -0.626100
      7 C1           0.1710    13.1620   -35.7450 cc         1 VOQ       0.292300
      8 C5          -2.1480    14.2620   -36.3020 c3         1 VOQ       0.167300
      9 C6          -1.9430    16.0680   -34.6600 c3         1 VOQ       0.085300
     10 C3          -1.5930    12.2680   -34.7780 cd         1 VOQ       0.228300
     11 C2          -1.2480    13.2650   -35.6380 cc         1 VOQ      -0.255300
     12 C10         -6.4410    15.6140   -34.2950 c3         1 VOQ      -0.098100
     13 O           -0.4850    11.6040   -34.3900 os         1 VOQ      -0.099700
     14 N            0.6380    12.1800   -35.0150 nd         1 VOQ      -0.363300
     15 H1          -4.9130    16.5580   -32.3250 hn         1 VOQ       0.401500
     16 H2          -4.5590    14.9900   -32.5600 hn         1 VOQ       0.401500
     17 H4          -5.4470    18.1120   -34.1450 hc         1 VOQ       0.046033
     18 H5          -3.8230    17.8310   -34.7810 hc         1 VOQ       0.046033
     19 H6          -5.2350    17.5440   -35.8060 hc         1 VOQ       0.046033
     20 H7          -1.5600    14.8920   -36.9730 h1         1 VOQ       0.068200
     21 H8          -2.9100    13.7630   -36.8920 h1         1 VOQ       0.068200
     22 H9          -2.4270    16.4880   -33.7890 h1         1 VOQ       0.049033
     23 H10         -1.0550    15.5250   -34.3330 h1         1 VOQ       0.049033
     24 H11         -1.6270    16.8590   -35.3460 h1         1 VOQ       0.049033
     25 H12         -2.9770    10.7430   -34.2460 hc         1 VOQ       0.068367
     26 H13         -2.9710    12.1380   -33.1620 hc         1 VOQ       0.068367
     27 H14         -3.7090    12.2770   -34.7640 hc         1 VOQ       0.068367
     28 H15         -6.9770    16.2720   -33.6090 hc         1 VOQ       0.046033
     29 H16         -6.8880    15.7040   -35.2850 hc         1 VOQ       0.046033
     30 H17         -6.5640    14.5850   -33.9570 hc         1 VOQ       0.046033
     31 H18          2.1210    13.7050   -36.4130 hc         1 VOQ       0.056367
     32 H19          0.8410    13.9360   -37.6170 hc         1 VOQ       0.056367
     33 H20          0.9850    15.0610   -36.2700 hc         1 VOQ       0.056367
     34 C            1.0870    14.0120   -36.5560 c3         1 VOQ      -0.135400
     35 C4          -2.8880    11.8300   -34.2070 c3         1 VOQ      -0.145400
@<TRIPOS>BOND
     1     1     2 1   
     2     1     8 1   
     3     1     9 1   
     4     2     3 1   
     5     2     6 2   
     6     3     4 1   
     7     3     5 1   
     8     3    12 1   
     9     4    15 1   
    10     4    16 1   
    11     5    17 1   
    12     5    18 1   
    13     5    19 1   
    14     7    11 1   
    15     7    14 2   
    16     7    34 1   
    17     8    11 1   
    18     8    20 1   
    19     8    21 1   
    20     9    22 1   
    21     9    23 1   
    22     9    24 1   
    23    10    11 2   
    24    10    13 1   
    25    10    35 1   
    26    12    28 1   
    27    12    29 1   
    28    12    30 1   
    29    13    14 1   
    30    25    35 1   
    31    26    35 1   
    32    27    35 1   
    33    31    34 1   
    34    32    34 1   
    35    33    34 1   
@<TRIPOS>SUBSTRUCTURE
     1 VOQ         1 TEMP              0 ****  ****    0 ROOT
