@<TRIPOS>MOLECULE
VOR
   39    41     1     0     0
SMALL
abcg2


@<TRIPOS>ATOM
      1 F1          -1.0380     1.1300    -1.9490 f          1 VOR      -0.186000
      2 F2           3.2450     1.6860    -1.7530 f          1 VOR      -0.153000
      3 F3          -5.1200     2.1050     0.0630 f          1 VOR      -0.168000
      4 O4           0.2370    -0.4850     1.7660 oh         1 VOR      -0.652000
      5 N5          -0.7290    -2.1460    -0.4570 na         1 VOR      -0.054700
      6 N6           2.9240    -0.2110     1.2390 nb         1 VOR      -0.198000
      7 N7          -0.7520    -3.0690     0.5100 nc         1 VOR      -0.523800
      8 N8          -2.5670    -3.2570    -0.7870 nd         1 VOR      -0.699000
      9 N9           5.1360    -0.3740     0.4530 nb         1 VOR      -0.147000
     10 C10          0.1140     0.0020     0.4630 c3         1 VOR       0.255300
     11 C11          1.1680     1.1160     0.1840 c3         1 VOR      -0.149000
     12 C12          0.3150    -1.1570    -0.5460 c3         1 VOR       0.054600
     13 C13         -1.2940     0.5730     0.3380 ca         1 VOR      -0.144300
     14 C14          1.0620     2.2720     1.1830 c3         1 VOR      -0.080100
     15 C15          2.5740     0.5790     0.2240 ca         1 VOR       0.088300
     16 C16         -1.8000     1.1090    -0.8400 ca         1 VOR       0.187000
     17 C17         -2.1590     0.5790     1.4300 ca         1 VOR      -0.021000
     18 C18          3.5390     0.9020    -0.7150 ca         1 VOR       0.070000
     19 C19         -3.0740     1.6290    -0.9630 ca         1 VOR      -0.201000
     20 C20         -3.4460     1.0890     1.3570 ca         1 VOR      -0.170000
     21 C21         -1.8200    -2.2680    -1.2200 cc         1 VOR       0.408400
     22 C22         -3.8820     1.6070     0.1550 ca         1 VOR       0.209000
     23 C23          4.8190     0.4080    -0.5690 ca         1 VOR       0.082900
     24 C24          4.1680    -0.6520     1.3090 ca         1 VOR       0.125900
     25 C25         -1.8690    -3.7130     0.2750 cd         1 VOR       0.511900
     26 HO4          1.1850    -0.6410     1.9280 ho         1 VOR       0.489000
     27 H11          0.9830     1.5140    -0.8120 hc         1 VOR       0.084700
     28 H12          1.2640    -1.6580    -0.3590 h1         1 VOR       0.074200
     29 H12A         0.3400    -0.7940    -1.5710 h1         1 VOR       0.074200
     30 H14          1.2800     1.9470     2.2000 hc         1 VOR       0.050033
     31 H14A         1.7680     3.0600     0.9230 hc         1 VOR       0.050033
     32 H14B         0.0630     2.7060     1.1690 hc         1 VOR       0.050033
     33 H17         -1.8190     0.1780     2.3720 ha         1 VOR       0.150000
     34 H19         -3.4180     2.0320    -1.9060 ha         1 VOR       0.152000
     35 H20         -4.0940     1.0820     2.2230 ha         1 VOR       0.142000
     36 H21         -2.0160    -1.6410    -2.0760 h5         1 VOR       0.063100
     37 H23          5.5930     0.6500    -1.2890 h4         1 VOR       0.047100
     38 H24          4.4120    -1.2980     2.1440 h5         1 VOR       0.064100
     39 H25         -2.1890    -4.5440     0.8850 h5         1 VOR       0.062100
@<TRIPOS>BOND
     1     1    16 1   
     2     2    18 1   
     3     3    22 1   
     4     4    10 1   
     5     4    26 1   
     6     5     7 1   
     7     5    12 1   
     8     5    21 1   
     9     6    15 ar  
    10     6    24 ar  
    11     7    25 2   
    12     8    21 2   
    13     8    25 1   
    14     9    23 ar  
    15     9    24 ar  
    16    10    11 1   
    17    10    12 1   
    18    10    13 1   
    19    11    14 1   
    20    11    15 1   
    21    11    27 1   
    22    12    28 1   
    23    12    29 1   
    24    13    16 ar  
    25    13    17 ar  
    26    14    30 1   
    27    14    31 1   
    28    14    32 1   
    29    15    18 ar  
    30    16    19 ar  
    31    17    20 ar  
    32    17    33 1   
    33    18    23 ar  
    34    19    22 ar  
    35    19    34 1   
    36    20    22 ar  
    37    20    35 1   
    38    21    36 1   
    39    23    37 1   
    40    24    38 1   
    41    25    39 1   
@<TRIPOS>SUBSTRUCTURE
     1 VOR         1 TEMP              0 ****  ****    0 ROOT
