@<TRIPOS>MOLECULE
VOR
   39    41     1     0     0
SMALL
No Charge or Current Charge


@<TRIPOS>ATOM
      1 F1          -1.0070     1.3210    -1.9750 f          1 VOR      -0.186000
      2 F2           2.8840     0.6660    -2.0570 f          1 VOR      -0.153000
      3 F3          -5.1750     2.3420     0.0160 f          1 VOR      -0.168000
      4 O4           0.2450    -0.5280     1.7440 oh         1 VOR      -0.652000
      5 N5          -0.6890    -2.2100    -0.5180 na         1 VOR      -0.054700
      6 N6           3.1290     0.2900     1.5590 nb         1 VOR      -0.198000
      7 N7          -0.3070    -3.4480    -0.1040 nc         1 VOR      -0.523800
      8 N8          -2.5120    -3.4100    -0.6660 nd         1 VOR      -0.699000
      9 N9           5.1840    -0.4410     0.5230 nb         1 VOR      -0.147000
     10 C10          0.0760     0.0540     0.4460 c3         1 VOR       0.255300
     11 C11          1.1800     1.1620     0.3070 c3         1 VOR      -0.149000
     12 C12          0.2820    -1.0960    -0.5990 c3         1 VOR       0.054600
     13 C13         -1.3470     0.6720     0.3260 ca         1 VOR      -0.144300
     14 C14          1.0060     2.3410     1.3090 c3         1 VOR      -0.080100
     15 C15          2.6130     0.5990     0.3450 ca         1 VOR       0.088300
     16 C16         -1.7950     1.2760    -0.8790 ca         1 VOR       0.187000
     17 C17         -2.2450     0.6580     1.4270 ca         1 VOR      -0.021000
     18 C18          3.3760     0.3870    -0.8280 ca         1 VOR       0.070000
     19 C19         -3.0770     1.8330    -0.9810 ca         1 VOR      -0.201000
     20 C20         -3.5290     1.2200     1.3180 ca         1 VOR      -0.170000
     21 C21         -2.0200    -2.2000    -0.8650 cc         1 VOR       0.408400
     22 C22         -3.9410     1.8050     0.1170 ca         1 VOR       0.209000
     23 C23          4.6720    -0.1410    -0.6890 ca         1 VOR       0.082900
     24 C24          4.3850    -0.2100     1.5860 ca         1 VOR       0.125900
     25 C25         -1.4340    -4.1440    -0.1960 cd         1 VOR       0.511900
     26 HO4          1.2060    -0.4920     1.9390 ho         1 VOR       0.489000
     27 H11          1.0490     1.6210    -0.6780 hc         1 VOR       0.084700
     28 H12          1.2840    -1.5220    -0.4670 h1         1 VOR       0.074200
     29 H12A         0.2530    -0.6910    -1.6160 h1         1 VOR       0.074200
     30 H14          1.0550     2.0010     2.3510 hc         1 VOR       0.050033
     31 H14A         1.7940     3.0880     1.1600 hc         1 VOR       0.050033
     32 H14B         0.0430     2.8450     1.1640 hc         1 VOR       0.050033
     33 H17         -1.9650     0.2160     2.3800 ha         1 VOR       0.150000
     34 H19         -3.4010     2.2870    -1.9130 ha         1 VOR       0.152000
     35 H20         -4.2060     1.2020     2.1690 ha         1 VOR       0.142000
     36 H21         -2.5410    -1.3300    -1.2450 h5         1 VOR       0.063100
     37 H23          5.3060    -0.3280    -1.5540 h4         1 VOR       0.047100
     38 H24          4.7930    -0.4530     2.5660 h5         1 VOR       0.064100
     39 H25         -1.5220    -5.1940     0.0610 h5         1 VOR       0.062100
@<TRIPOS>BOND
     1     1    16 1   
     2     2    18 1   
     3     3    22 1   
     4     4    10 1   
     5     4    26 1   
     6     5     7 1   
     7     5    12 1   
     8     5    21 1   
     9     6    15 ar  
    10     6    24 ar  
    11     7    25 2   
    12     8    21 2   
    13     8    25 1   
    14     9    23 ar  
    15     9    24 ar  
    16    10    11 1   
    17    10    12 1   
    18    10    13 1   
    19    11    14 1   
    20    11    15 1   
    21    11    27 1   
    22    12    28 1   
    23    12    29 1   
    24    13    16 ar  
    25    13    17 ar  
    26    14    30 1   
    27    14    31 1   
    28    14    32 1   
    29    15    18 ar  
    30    16    19 ar  
    31    17    20 ar  
    32    17    33 1   
    33    18    23 ar  
    34    19    22 ar  
    35    19    34 1   
    36    20    22 ar  
    37    20    35 1   
    38    21    36 1   
    39    23    37 1   
    40    24    38 1   
    41    25    39 1   
@<TRIPOS>SUBSTRUCTURE
     1 VOR         1 TEMP              0 ****  ****    0 ROOT
