@<TRIPOS>MOLECULE
VOT
   87    89     1     0     0
SMALL
abcg2


@<TRIPOS>ATOM
      1 C10         57.0330  -133.9110    34.8310 ca         1 VOT      -0.062500
      2 C13         55.1920  -134.4650    32.8220 ca         1 VOT      -0.152500
      3 C17         50.7700  -132.7140    34.6550 ca         1 VOT      -0.144500
      4 C20         47.2140  -131.4440    33.9120 c3         1 VOT      -0.025100
      5 C21         46.4980  -131.9570    35.1670 c3         1 VOT      -0.092100
      6 C22         49.2450  -131.8870    32.4830 ca         1 VOT      -0.086000
      7 C24         56.5330  -134.8140    32.6790 ca         1 VOT      -0.062500
      8 C26         61.9760  -135.2330    35.7050 c3         1 VOT       0.056700
      9 C36         63.1070  -137.0310    43.7100 c3         1 VOT      -0.081400
     10 C34         63.4350  -136.2980    42.4000 c3         1 VOT       0.103700
     11 C35         63.8180  -134.8570    42.7100 c3         1 VOT      -0.118100
     12 N33         62.3610  -136.3710    41.4290 ns         1 VOT      -0.483900
     13 C31         62.5860  -136.6520    40.1260 c          1 VOT       0.577100
     14 O32         63.6680  -137.0630    39.7070 o          1 VOT      -0.614100
     15 C37         62.5470  -138.4550    43.5350 c3         1 VOT      -0.146400
     16 C38         61.0300  -138.4900    43.4520 c          1 VOT       0.583100
     17 O39         60.3430  -138.0830    44.4010 o          1 VOT      -0.625100
     18 N40         60.4890  -139.1050    42.3880 ns         1 VOT      -0.507900
     19 C41         59.0360  -139.1630    42.1770 c3         1 VOT       0.108000
     20 C42         58.6710  -138.9980    40.7230 c3         1 VOT      -0.134400
     21 C43         59.2160  -137.6750    40.1040 c3         1 VOT       0.168300
     22 O44         58.2580  -137.0710    39.2330 oh         1 VOT      -0.643000
     23 C45         60.4930  -137.8570    39.2910 c3         1 VOT      -0.087400
     24 C30         61.3790  -136.6020    39.1990 c3         1 VOT       0.038700
     25 N29         61.8330  -136.3250    37.8510 ns         1 VOT      -0.495900
     26 C27         61.3040  -135.3540    37.0790 c          1 VOT       0.608100
     27 O28         60.3990  -134.6150    37.4390 o          1 VOT      -0.573100
     28 C46         63.0270  -134.1050    35.7670 c3         1 VOT       0.160300
     29 C48         64.1950  -134.4730    36.6690 c3         1 VOT      -0.140100
     30 O47         63.4990  -133.9780    34.4200 oh         1 VOT      -0.675000
     31 N25         60.9950  -134.8450    34.6860 ns         1 VOT      -0.510900
     32 C1          59.7270  -135.2920    34.5950 c          1 VOT       0.589100
     33 O2          59.2320  -136.1480    35.3240 o          1 VOT      -0.584100
     34 C9          57.4780  -134.5570    33.6670 ca         1 VOT      -0.092300
     35 C11         55.7120  -133.5360    34.9800 ca         1 VOT      -0.152500
     36 C12         54.7450  -133.9140    34.0290 ca         1 VOT       0.261000
     37 N14         53.4180  -133.5420    34.2600 nu         1 VOT      -0.678000
     38 N15         52.6740  -133.0830    33.1230 nu         1 VOT      -0.681000
     39 C16         51.3420  -132.7120    33.3800 ca         1 VOT       0.249000
     40 C23         50.5790  -132.2230    32.3120 ca         1 VOT      -0.144500
     41 C19         48.6500  -131.9100    33.7530 ca         1 VOT      -0.101300
     42 C18         49.4580  -132.2650    34.8300 ca         1 VOT      -0.086000
     43 H1          57.7760  -133.5890    35.5520 ha         1 VOT       0.117000
     44 H2          54.4480  -134.7220    32.0800 ha         1 VOT       0.111500
     45 H3          51.3450  -132.9500    35.5390 ha         1 VOT       0.116500
     46 H4          47.1470  -130.3530    33.8960 hc         1 VOT       0.047700
     47 H5          46.6680  -131.8500    33.0560 hc         1 VOT       0.047700
     48 H6          45.4910  -131.5280    35.1930 hc         1 VOT       0.033700
     49 H7          46.4160  -133.0420    35.2090 hc         1 VOT       0.033700
     50 H8          46.9580  -131.5670    36.0800 hc         1 VOT       0.033700
     51 H9          48.6520  -131.6480    31.6090 ha         1 VOT       0.111000
     52 H10         56.8390  -135.2850    31.7490 ha         1 VOT       0.117000
     53 H11         62.4160  -136.1670    35.3520 h1         1 VOT       0.075700
     54 H13         62.3430  -136.4750    44.2640 hc         1 VOT       0.060200
     55 H14         64.3280  -136.7920    42.0210 h1         1 VOT       0.081700
     56 H15         64.6170  -134.8250    43.4580 hc         1 VOT       0.042700
     57 H16         64.2010  -134.3230    41.8390 hc         1 VOT       0.042700
     58 H17         62.9970  -134.2980    43.1700 hc         1 VOT       0.042700
     59 H18         61.4870  -135.9170    41.6600 hn         1 VOT       0.317500
     60 H19         62.8790  -139.1470    44.3070 hc         1 VOT       0.060700
     61 H20         62.9260  -138.8480    42.5790 hc         1 VOT       0.060700
     62 H21         61.1120  -139.4030    41.6560 hn         1 VOT       0.313500
     63 H22         58.6360  -138.3420    42.7710 h1         1 VOT       0.064200
     64 H23         58.6890  -140.1120    42.5920 h1         1 VOT       0.064200
     65 H24         57.5940  -139.0200    40.5590 hc         1 VOT       0.060700
     66 H25         59.0840  -139.7940    40.0940 hc         1 VOT       0.060700
     67 H26         59.4210  -136.9900    40.9430 h1         1 VOT       0.023700
     68 H27         57.4440  -136.9240    39.7300 ho         1 VOT       0.442000
     69 H28         60.1620  -138.1010    38.2780 hc         1 VOT       0.069200
     70 H29         61.0580  -138.7230    39.6340 hc         1 VOT       0.069200
     71 H30         60.7720  -135.7300    39.4570 h1         1 VOT       0.095700
     72 H31         62.4930  -136.9630    37.4340 hn         1 VOT       0.327500
     73 H32         62.5650  -133.1910    36.1490 h1         1 VOT       0.061700
     74 H33         63.9070  -134.6730    37.7010 hc         1 VOT       0.050700
     75 H34         64.6820  -135.3920    36.3270 hc         1 VOT       0.050700
     76 H35         64.9590  -133.6900    36.6710 hc         1 VOT       0.050700
     77 H36         64.1080  -133.2280    34.3820 ho         1 VOT       0.450000
     78 H37         61.2920  -134.2060    33.9670 hn         1 VOT       0.329500
     79 H40         55.3790  -133.0690    35.9010 ha         1 VOT       0.111500
     80 H41         53.3270  -132.8390    34.9830 hn         1 VOT       0.454000
     81 H42         52.7520  -133.7420    32.3580 hn         1 VOT       0.457000
     82 H43         50.9830  -132.2220    31.3040 ha         1 VOT       0.116500
     83 H44         49.0550  -132.3060    35.8330 ha         1 VOT       0.111000
     84 C3          58.9430  -134.7260    33.3840 c3         1 VOT      -0.096100
     85 H12         63.9980  -137.0760    44.3340 hc         1 VOT       0.060200
     86 H38         59.1040  -135.4850    32.6140 hc         1 VOT       0.061700
     87 H39         59.4090  -133.7890    33.0720 hc         1 VOT       0.061700
@<TRIPOS>BOND
     1     1    34 ar  
     2     1    35 ar  
     3     1    43 1   
     4     2     7 ar  
     5     2    36 ar  
     6     2    44 1   
     7     3    39 ar  
     8     3    42 ar  
     9     3    45 1   
    10     4     5 1   
    11     4    41 1   
    12     4    46 1   
    13     4    47 1   
    14     5    48 1   
    15     5    49 1   
    16     5    50 1   
    17     6    40 ar  
    18     6    41 ar  
    19     6    51 1   
    20     7    34 ar  
    21     7    52 1   
    22     8    26 1   
    23     8    28 1   
    24     8    31 1   
    25     8    53 1   
    26     9    10 1   
    27     9    15 1   
    28     9    54 1   
    29     9    85 1   
    30    10    11 1   
    31    10    12 1   
    32    10    55 1   
    33    11    56 1   
    34    11    57 1   
    35    11    58 1   
    36    12    13 1   
    37    12    59 1   
    38    13    14 2   
    39    13    24 1   
    40    15    16 1   
    41    15    60 1   
    42    15    61 1   
    43    16    17 2   
    44    16    18 1   
    45    18    19 1   
    46    18    62 1   
    47    19    20 1   
    48    19    63 1   
    49    19    64 1   
    50    20    21 1   
    51    20    65 1   
    52    20    66 1   
    53    21    22 1   
    54    21    23 1   
    55    21    67 1   
    56    22    68 1   
    57    23    24 1   
    58    23    69 1   
    59    23    70 1   
    60    24    25 1   
    61    24    71 1   
    62    25    26 1   
    63    25    72 1   
    64    26    27 2   
    65    28    29 1   
    66    28    30 1   
    67    28    73 1   
    68    29    74 1   
    69    29    75 1   
    70    29    76 1   
    71    30    77 1   
    72    31    32 1   
    73    31    78 1   
    74    32    33 2   
    75    32    84 1   
    76    34    84 1   
    77    35    36 ar  
    78    35    79 1   
    79    36    37 1   
    80    37    38 1   
    81    37    80 1   
    82    38    39 1   
    83    38    81 1   
    84    39    40 ar  
    85    40    82 1   
    86    41    42 ar  
    87    42    83 1   
    88    84    86 1   
    89    84    87 1   
@<TRIPOS>SUBSTRUCTURE
     1 VOT         1 TEMP              0 ****  ****    0 ROOT
