@<TRIPOS>MOLECULE
VOT
   87    89     1     0     0
SMALL
No Charge or Current Charge


@<TRIPOS>ATOM
      1 C10         57.6390  -133.1210    33.6970 ca         1 VOT      -0.062500
      2 C13         55.4920  -134.9070    33.4180 ca         1 VOT      -0.152500
      3 C17         51.2530  -132.3460    35.0740 ca         1 VOT      -0.144500
      4 C20         47.6040  -131.3550    34.4170 c3         1 VOT      -0.025100
      5 C21         46.6410  -132.2370    35.2310 c3         1 VOT      -0.092100
      6 C22         49.2470  -132.8440    33.1740 ca         1 VOT      -0.086000
      7 C24         56.7820  -135.2890    33.0100 ca         1 VOT      -0.062500
      8 C26         61.8830  -134.8670    35.5660 c3         1 VOT       0.056700
      9 C36         62.3720  -136.6070    43.7960 c3         1 VOT      -0.081400
     10 C34         62.9250  -136.7840    42.3550 c3         1 VOT       0.103700
     11 C35         64.1410  -135.8640    42.1080 c3         1 VOT      -0.118100
     12 N33         61.8940  -136.5110    41.3480 ns         1 VOT      -0.483900
     13 C31         61.9710  -136.8810    40.0170 c          1 VOT       0.577100
     14 O32         62.8570  -137.6150    39.5980 o          1 VOT      -0.614100
     15 C37         61.5100  -137.7810    44.3340 c3         1 VOT      -0.146400
     16 C38         60.2510  -138.0520    43.5070 c          1 VOT       0.583100
     17 O39         59.2780  -137.3140    43.5230 o          1 VOT      -0.625100
     18 N40         60.2890  -139.2170    42.7760 ns         1 VOT      -0.507900
     19 C41         59.2480  -139.6790    41.8560 c3         1 VOT       0.108000
     20 C42         59.4890  -139.1640    40.4220 c3         1 VOT      -0.134400
     21 C43         59.0100  -137.7130    40.1590 c3         1 VOT       0.168300
     22 O44         57.5860  -137.7180    40.0430 oh         1 VOT      -0.643000
     23 C45         59.6210  -137.1070    38.8700 c3         1 VOT      -0.087400
     24 C30         60.8990  -136.2420    39.0830 c3         1 VOT       0.038700
     25 N29         61.5140  -135.9410    37.7720 ns         1 VOT      -0.495900
     26 C27         61.0700  -134.9790    36.8870 c          1 VOT       0.608100
     27 O28         60.1040  -134.2700    37.1440 o          1 VOT      -0.573100
     28 C46         63.0290  -133.8190    35.7110 c3         1 VOT       0.160300
     29 C48         64.1480  -134.2490    36.6830 c3         1 VOT      -0.140100
     30 O47         63.6230  -133.5620    34.4300 oh         1 VOT      -0.675000
     31 N25         60.9880  -134.5180    34.4350 ns         1 VOT      -0.510900
     32 C1          60.0600  -135.3740    33.8870 c          1 VOT       0.589100
     33 O2          59.8830  -136.5010    34.3270 o          1 VOT      -0.584100
     34 C9          57.8630  -134.3960    33.1430 ca         1 VOT      -0.092300
     35 C11         56.3480  -132.7430    34.1050 ca         1 VOT      -0.152500
     36 C12         55.2640  -133.6260    33.9620 ca         1 VOT       0.261000
     37 N14         53.9850  -133.2090    34.3850 nu         1 VOT      -0.678000
     38 N15         52.7850  -133.8070    33.8060 nu         1 VOT      -0.681000
     39 C16         51.5290  -133.1900    33.9770 ca         1 VOT       0.249000
     40 C23         50.5150  -133.4380    33.0360 ca         1 VOT      -0.144500
     41 C19         48.9780  -131.9950    34.2630 ca         1 VOT      -0.101300
     42 C18         49.9860  -131.7520    35.2140 ca         1 VOT      -0.086000
     43 H1          58.4650  -132.4220    33.8130 ha         1 VOT       0.117000
     44 H2          54.6770  -135.6170    33.3180 ha         1 VOT       0.111500
     45 H3          52.0100  -132.1560    35.8280 ha         1 VOT       0.116500
     46 H4          47.6930  -130.3770    34.9080 hc         1 VOT       0.047700
     47 H5          47.1630  -131.1610    33.4310 hc         1 VOT       0.047700
     48 H6          45.6620  -131.7510    35.3250 hc         1 VOT       0.033700
     49 H7          46.4980  -133.2080    34.7410 hc         1 VOT       0.033700
     50 H8          47.0360  -132.4130    36.2390 hc         1 VOT       0.033700
     51 H9          48.4750  -133.0470    32.4350 ha         1 VOT       0.111000
     52 H10         56.9420  -136.2820    32.5950 ha         1 VOT       0.117000
     53 H11         62.3280  -135.8490    35.3600 h1         1 VOT       0.075700
     54 H13         61.8020  -135.6710    43.8580 hc         1 VOT       0.060200
     55 H14         63.2620  -137.8240    42.2380 h1         1 VOT       0.081700
     56 H15         64.9400  -136.0770    42.8280 hc         1 VOT       0.042700
     57 H16         64.5510  -136.0150    41.1020 hc         1 VOT       0.042700
     58 H17         63.8590  -134.8090    42.2090 hc         1 VOT       0.042700
     59 H18         61.1300  -135.8980    41.6080 hn         1 VOT       0.317500
     60 H19         61.2000  -137.5280    45.3550 hc         1 VOT       0.060700
     61 H20         62.1390  -138.6790    44.3630 hc         1 VOT       0.060700
     62 H21         61.1340  -139.7700    42.8530 hn         1 VOT       0.313500
     63 H22         58.2560  -139.3770    42.2190 h1         1 VOT       0.064200
     64 H23         59.2760  -140.7770    41.8460 h1         1 VOT       0.064200
     65 H24         58.9740  -139.8330    39.7210 hc         1 VOT       0.060700
     66 H25         60.5570  -139.2600    40.1930 hc         1 VOT       0.060700
     67 H26         59.2960  -137.0690    40.9970 h1         1 VOT       0.023700
     68 H27         57.2250  -137.7120    40.9560 ho         1 VOT       0.442000
     69 H28         58.8720  -136.4730    38.3790 hc         1 VOT       0.069200
     70 H29         59.8390  -137.9150    38.1620 hc         1 VOT       0.069200
     71 H30         60.6010  -135.2940    39.5520 h1         1 VOT       0.095700
     72 H31         62.3220  -136.4890    37.4920 hn         1 VOT       0.327500
     73 H32         62.5850  -132.8890    36.0970 h1         1 VOT       0.061700
     74 H33         63.7650  -134.3510    37.7050 hc         1 VOT       0.050700
     75 H34         64.5850  -135.2080    36.3790 hc         1 VOT       0.050700
     76 H35         64.9490  -133.5000    36.7080 hc         1 VOT       0.050700
     77 H36         64.3280  -132.8900    34.5650 ho         1 VOT       0.450000
     78 H37         61.1060  -133.6150    33.9910 hn         1 VOT       0.329500
     79 H40         56.1920  -131.7550    34.5300 ha         1 VOT       0.111500
     80 H41         53.9130  -132.2310    34.6960 hn         1 VOT       0.454000
     81 H42         52.9070  -134.3450    32.9360 hn         1 VOT       0.457000
     82 H43         50.7070  -134.0930    32.1900 ha         1 VOT       0.116500
     83 H44         49.7870  -131.1050    36.0670 ha         1 VOT       0.111000
     84 C3          59.2650  -134.8100    32.7050 c3         1 VOT      -0.096100
     85 H12         63.2190  -136.4890    44.4840 hc         1 VOT       0.060200
     86 H38         59.1960  -135.5820    31.9300 hc         1 VOT       0.061700
     87 H39         59.7820  -133.9350    32.2930 hc         1 VOT       0.061700
@<TRIPOS>BOND
     1     1    34 ar  
     2     1    35 ar  
     3     1    43 1   
     4     2     7 ar  
     5     2    36 ar  
     6     2    44 1   
     7     3    39 ar  
     8     3    42 ar  
     9     3    45 1   
    10     4     5 1   
    11     4    41 1   
    12     4    46 1   
    13     4    47 1   
    14     5    48 1   
    15     5    49 1   
    16     5    50 1   
    17     6    40 ar  
    18     6    41 ar  
    19     6    51 1   
    20     7    34 ar  
    21     7    52 1   
    22     8    26 1   
    23     8    28 1   
    24     8    31 1   
    25     8    53 1   
    26     9    10 1   
    27     9    15 1   
    28     9    54 1   
    29     9    85 1   
    30    10    11 1   
    31    10    12 1   
    32    10    55 1   
    33    11    56 1   
    34    11    57 1   
    35    11    58 1   
    36    12    13 1   
    37    12    59 1   
    38    13    14 2   
    39    13    24 1   
    40    15    16 1   
    41    15    60 1   
    42    15    61 1   
    43    16    17 2   
    44    16    18 1   
    45    18    19 1   
    46    18    62 1   
    47    19    20 1   
    48    19    63 1   
    49    19    64 1   
    50    20    21 1   
    51    20    65 1   
    52    20    66 1   
    53    21    22 1   
    54    21    23 1   
    55    21    67 1   
    56    22    68 1   
    57    23    24 1   
    58    23    69 1   
    59    23    70 1   
    60    24    25 1   
    61    24    71 1   
    62    25    26 1   
    63    25    72 1   
    64    26    27 2   
    65    28    29 1   
    66    28    30 1   
    67    28    73 1   
    68    29    74 1   
    69    29    75 1   
    70    29    76 1   
    71    30    77 1   
    72    31    32 1   
    73    31    78 1   
    74    32    33 2   
    75    32    84 1   
    76    34    84 1   
    77    35    36 ar  
    78    35    79 1   
    79    36    37 1   
    80    37    38 1   
    81    37    80 1   
    82    38    39 1   
    83    38    81 1   
    84    39    40 ar  
    85    40    82 1   
    86    41    42 ar  
    87    42    83 1   
    88    84    86 1   
    89    84    87 1   
@<TRIPOS>SUBSTRUCTURE
     1 VOT         1 TEMP              0 ****  ****    0 ROOT
