@<TRIPOS>MOLECULE
VOU
   49    52     1     0     0
SMALL
No Charge or Current Charge


@<TRIPOS>ATOM
      1 O2          46.1540   -31.9230    21.7920 os         1 VOU      -0.351100
      2 C2          44.9470   -35.8460    24.2430 c5         1 VOU       0.101000
      3 N1          44.8950   -34.3980    23.9530 n          1 VOU      -0.404800
      4 C1          44.0530   -33.8580    22.9590 c          1 VOU       0.599100
      5 C15         46.4290   -29.0640    22.9740 cc         1 VOU      -0.211000
      6 C16         45.3710   -28.6710    23.8810 cc         1 VOU      -0.089000
      7 C17         45.2750   -29.1250    25.1990 cd         1 VOU      -0.160000
      8 C3          45.7470   -35.8650    25.5700 c5         1 VOU      -0.092900
      9 N2          46.2960   -29.9970    25.5890 na         1 VOU       0.164100
     10 C5          45.8960   -33.6220    24.7150 c5         1 VOU       0.101000
     11 C4          46.7820   -34.7430    25.3190 c5         1 VOU      -0.092900
     12 C6          43.9860   -32.3390    22.7520 c3         1 VOU      -0.153400
     13 O1          43.3410   -34.5970    22.2900 o          1 VOU      -0.632100
     14 C7          44.7510   -31.9290    21.4820 c3         1 VOU       0.167600
     15 N3          48.6400   -32.6910    28.6900 n1         1 VOU      -0.467000
     16 C11         49.0450   -30.7510    18.9760 ca         1 VOU      -0.139000
     17 C12         49.1970   -30.3940    20.3270 ca         1 VOU      -0.070000
     18 C13         48.2250   -30.7610    21.2750 ca         1 VOU       0.042100
     19 C14         47.4060   -29.9390    23.3990 cd         1 VOU       0.184100
     20 C10         47.9210   -31.4840    18.5650 ca         1 VOU      -0.065000
     21 C8          47.0910   -31.5140    20.8650 ca         1 VOU       0.141100
     22 C9          46.9490   -31.8660    19.5050 ca         1 VOU      -0.189000
     23 C18         47.3090   -30.3740    24.7460 cd         1 VOU      -0.138000
     24 C19         48.1300   -31.1890    25.4750 cc         1 VOU      -0.179000
     25 C20         47.5760   -31.2840    26.7900 cc         1 VOU      -0.042700
     26 C21         48.1680   -32.0460    27.8400 cg         1 VOU       0.318700
     27 C22         46.4160   -30.5320    26.8640 cd         1 VOU      -0.186100
     28 H2          45.4760   -36.3820    23.4430 h1         1 VOU       0.055450
     29 H3          46.4360   -28.6690    21.9640 ha         1 VOU       0.135000
     30 H4          44.6170   -27.9860    23.5040 ha         1 VOU       0.130000
     31 H5          44.5070   -28.8610    25.9150 h4         1 VOU       0.147000
     32 H6          45.1020   -35.6280    26.4240 hc         1 VOU       0.056200
     33 H7          46.2110   -36.8390    25.7660 hc         1 VOU       0.056200
     34 H8          46.4840   -32.9510    24.0770 h1         1 VOU       0.055450
     35 H9          45.4090   -33.0270    25.4990 h1         1 VOU       0.055450
     36 H10         47.5490   -35.0640    24.6050 hc         1 VOU       0.056200
     37 H11         47.2960   -34.4270    26.2330 hc         1 VOU       0.056200
     38 H12         44.3980   -31.7880    23.6030 hc         1 VOU       0.075700
     39 H13         42.9370   -32.0600    22.6100 hc         1 VOU       0.075700
     40 H14         44.5140   -32.6250    20.6670 h1         1 VOU       0.051700
     41 H15         44.4320   -30.9230    21.1800 h1         1 VOU       0.051700
     42 H16         49.7990   -30.4590    18.2490 ha         1 VOU       0.124000
     43 H17         50.0660   -29.8190    20.6400 ha         1 VOU       0.133000
     44 H18         47.8080   -31.7630    17.5190 ha         1 VOU       0.119000
     45 H19         46.1010   -32.4550    19.1680 ha         1 VOU       0.124000
     46 H20         49.0420   -31.6750    25.1330 ha         1 VOU       0.225000
     47 H21         45.7190   -30.3440    27.6730 h4         1 VOU       0.233000
     48 O3          48.4230   -30.3460    22.5800 os         1 VOU      -0.227200
     49 H1          43.9480   -36.2870    24.3600 h1         1 VOU       0.055450
@<TRIPOS>BOND
     1     1    14 1   
     2     1    21 1   
     3     2     3 1   
     4     2     8 1   
     5     2    28 1   
     6     2    49 1   
     7     3     4 1   
     8     3    10 1   
     9     4    12 1   
    10     4    13 2   
    11     5     6 1   
    12     5    19 2   
    13     5    29 1   
    14     6     7 2   
    15     6    30 1   
    16     7     9 1   
    17     7    31 1   
    18     8    11 1   
    19     8    32 1   
    20     8    33 1   
    21     9    23 1   
    22     9    27 1   
    23    10    11 1   
    24    10    34 1   
    25    10    35 1   
    26    11    36 1   
    27    11    37 1   
    28    12    14 1   
    29    12    38 1   
    30    12    39 1   
    31    14    40 1   
    32    14    41 1   
    33    15    26 3   
    34    16    17 ar  
    35    16    20 ar  
    36    16    42 1   
    37    17    18 ar  
    38    17    43 1   
    39    18    21 ar  
    40    18    48 1   
    41    19    23 1   
    42    19    48 1   
    43    20    22 ar  
    44    20    44 1   
    45    21    22 ar  
    46    22    45 1   
    47    23    24 2   
    48    24    25 1   
    49    24    46 1   
    50    25    26 1   
    51    25    27 2   
    52    27    47 1   
@<TRIPOS>SUBSTRUCTURE
     1 VOU         1 TEMP              0 ****  ****    0 ROOT
