@<TRIPOS>MOLECULE
VOU
   49    52     1     0     0
SMALL
abcg2


@<TRIPOS>ATOM
      1 O2          45.6940   -32.0750    21.5880 os         1 VOU      -0.351100
      2 C2          45.1170   -35.9540    24.0010 c5         1 VOU       0.101000
      3 N1          44.6700   -34.6210    23.5580 n          1 VOU      -0.404800
      4 C1          43.9770   -34.4830    22.4230 c          1 VOU       0.599100
      5 C15         46.5140   -29.2990    23.2550 cc         1 VOU      -0.211000
      6 C16         45.9390   -28.3960    24.2030 cc         1 VOU      -0.089000
      7 C17         46.1500   -28.5380    25.5320 cd         1 VOU      -0.160000
      8 C3          45.9030   -35.6820    25.2840 c5         1 VOU      -0.092900
      9 N2          46.9480   -29.5780    25.9720 na         1 VOU       0.164100
     10 C5          45.1350   -33.5630    24.4720 c5         1 VOU       0.101000
     11 C4          46.3280   -34.2160    25.1600 c5         1 VOU      -0.092900
     12 C6          43.5640   -33.0920    21.9690 c3         1 VOU      -0.153400
     13 O1          43.6800   -35.4650    21.7220 o          1 VOU      -0.632100
     14 C7          44.5110   -32.5440    20.9140 c3         1 VOU       0.167600
     15 N3          49.2000   -32.1960    29.1900 n1         1 VOU      -0.467000
     16 C11         48.9270   -30.5360    19.4780 ca         1 VOU      -0.139000
     17 C12         48.9260   -30.6030    20.8670 ca         1 VOU      -0.070000
     18 C13         47.8340   -31.1320    21.5330 ca         1 VOU       0.042100
     19 C14         47.2870   -30.3290    23.6940 cd         1 VOU       0.184100
     20 C10         47.8240   -31.0010    18.7770 ca         1 VOU      -0.065000
     21 C8          46.7130   -31.5950    20.8340 ca         1 VOU       0.141100
     22 C9          46.7180   -31.5240    19.4420 ca         1 VOU      -0.189000
     23 C18         47.5390   -30.4940    25.0830 cd         1 VOU      -0.138000
     24 C19         48.2930   -31.3900    25.8220 cc         1 VOU      -0.179000
     25 C20         48.1320   -31.0080    27.1820 cc         1 VOU      -0.042700
     26 C21         48.7200   -31.6560    28.2910 cg         1 VOU       0.318700
     27 C22         47.3010   -29.8930    27.2490 cd         1 VOU      -0.186100
     28 H2          45.7270   -36.4080    23.2200 h1         1 VOU       0.055450
     29 H3          46.3090   -29.1680    22.2030 ha         1 VOU       0.135000
     30 H4          45.3160   -27.5820    23.8570 ha         1 VOU       0.130000
     31 H5          45.7360   -27.8920    26.2930 h4         1 VOU       0.147000
     32 H6          45.2570   -35.8060    26.1540 hc         1 VOU       0.056200
     33 H7          46.7450   -36.3640    25.3950 hc         1 VOU       0.056200
     34 H8          45.4050   -32.6640    23.9290 h1         1 VOU       0.055450
     35 H9          44.3490   -33.3210    25.1940 h1         1 VOU       0.055450
     36 H10         47.2090   -34.1230    24.5230 hc         1 VOU       0.056200
     37 H11         46.5540   -33.7440    26.1130 hc         1 VOU       0.056200
     38 H12         43.4850   -32.3830    22.7930 hc         1 VOU       0.075700
     39 H13         42.5780   -33.1940    21.5170 hc         1 VOU       0.075700
     40 H14         44.7880   -33.3200    20.1940 h1         1 VOU       0.051700
     41 H15         44.0490   -31.7100    20.3810 h1         1 VOU       0.051700
     42 H16         49.7820   -30.1270    18.9550 ha         1 VOU       0.124000
     43 H17         49.7700   -30.2520    21.4460 ha         1 VOU       0.133000
     44 H18         47.8120   -30.9630    17.6940 ha         1 VOU       0.119000
     45 H19         45.8750   -31.8800    18.8750 ha         1 VOU       0.124000
     46 H20         48.8540   -32.2260    25.4430 ha         1 VOU       0.225000
     47 H21         46.9700   -29.3110    28.0940 h4         1 VOU       0.233000
     48 O3          47.8980   -31.2710    22.9150 os         1 VOU      -0.227200
     49 H1          44.2570   -36.6050    24.1640 h1         1 VOU       0.055450
@<TRIPOS>BOND
     1     1    14 1   
     2     1    21 1   
     3     2     3 1   
     4     2     8 1   
     5     2    28 1   
     6     2    49 1   
     7     3     4 1   
     8     3    10 1   
     9     4    12 1   
    10     4    13 2   
    11     5     6 1   
    12     5    19 2   
    13     5    29 1   
    14     6     7 2   
    15     6    30 1   
    16     7     9 1   
    17     7    31 1   
    18     8    11 1   
    19     8    32 1   
    20     8    33 1   
    21     9    23 1   
    22     9    27 1   
    23    10    11 1   
    24    10    34 1   
    25    10    35 1   
    26    11    36 1   
    27    11    37 1   
    28    12    14 1   
    29    12    38 1   
    30    12    39 1   
    31    14    40 1   
    32    14    41 1   
    33    15    26 3   
    34    16    17 ar  
    35    16    20 ar  
    36    16    42 1   
    37    17    18 ar  
    38    17    43 1   
    39    18    21 ar  
    40    18    48 1   
    41    19    23 1   
    42    19    48 1   
    43    20    22 ar  
    44    20    44 1   
    45    21    22 ar  
    46    22    45 1   
    47    23    24 2   
    48    24    25 1   
    49    24    46 1   
    50    25    26 1   
    51    25    27 2   
    52    27    47 1   
@<TRIPOS>SUBSTRUCTURE
     1 VOU         1 TEMP              0 ****  ****    0 ROOT
