@<TRIPOS>MOLECULE
VOX
   99   101     1     0     0
SMALL
abcg2


@<TRIPOS>ATOM
      1 C4          56.9660  -135.0920    34.6200 c3         1 VOX      -0.072400
      2 C5          55.7990  -134.2600    33.9800 c3         1 VOX      -0.077400
      3 C6          54.6430  -134.1150    34.9830 c3         1 VOX      -0.072400
      4 C7          53.2600  -134.1610    34.4030 c3         1 VOX      -0.080400
      5 C8          52.7450  -132.8780    33.7590 c3         1 VOX      -0.023100
      6 C10         50.5120  -132.6920    32.6120 ca         1 VOX      -0.073500
      7 C13         51.5530  -133.8870    30.2960 ca         1 VOX      -0.161500
      8 C17         46.0950  -133.2050    27.9490 ca         1 VOX      -0.153000
      9 C20         44.9700  -134.5950    24.6060 c3         1 VOX      -0.046800
     10 C22         46.9980  -134.9620    25.9910 ca         1 VOX      -0.075500
     11 C24         52.3370  -133.7390    31.4440 ca         1 VOX      -0.073500
     12 C26         61.8060  -134.9100    35.5940 c3         1 VOX       0.057700
     13 C36         63.4120  -136.6600    43.4970 c3         1 VOX      -0.085400
     14 C34         63.6510  -135.9790    42.1640 c3         1 VOX       0.099700
     15 C35         63.9400  -134.4710    42.4340 c3         1 VOX      -0.120100
     16 N33         62.5240  -136.0980    41.2550 ns         1 VOX      -0.492900
     17 C31         62.7270  -136.2440    39.9310 c          1 VOX       0.593100
     18 O32         63.8390  -136.3880    39.4260 o          1 VOX      -0.616100
     19 C37         62.9750  -138.1130    43.3970 c3         1 VOX      -0.147400
     20 C38         61.5150  -138.3290    43.3660 c          1 VOX       0.589100
     21 O39         60.7860  -137.9880    44.3160 o          1 VOX      -0.626100
     22 N40         61.0030  -139.0370    42.3430 ns         1 VOX      -0.508900
     23 C41         59.5790  -139.3110    42.1400 c3         1 VOX       0.113000
     24 C42         59.1910  -139.1360    40.6890 c3         1 VOX      -0.143400
     25 C43         59.4820  -137.7180    40.0980 c3         1 VOX       0.172300
     26 O44         58.4230  -137.2830    39.2690 oh         1 VOX      -0.632000
     27 C45         60.7470  -137.7290    39.2270 c3         1 VOX      -0.072400
     28 C30         61.4720  -136.3890    39.1160 c3         1 VOX       0.001700
     29 N29         61.7580  -136.1780    37.6590 ns         1 VOX      -0.455900
     30 C27         61.4020  -135.0260    37.0740 c          1 VOX       0.595100
     31 O28         60.5720  -134.2410    37.5230 o          1 VOX      -0.593100
     32 C46         62.7440  -133.6670    35.5580 c3         1 VOX       0.154300
     33 C48         63.9580  -133.9070    36.4010 c3         1 VOX      -0.145100
     34 O47         63.1580  -133.5600    34.1820 oh         1 VOX      -0.687000
     35 N25         60.6350  -134.5470    34.8040 ns         1 VOX      -0.487900
     36 C1          59.4860  -135.2290    34.8520 c          1 VOX       0.582100
     37 O2          59.3000  -136.1610    35.6510 o          1 VOX      -0.611100
     38 C3          58.3070  -134.7420    34.0390 c3         1 VOX      -0.140400
     39 C9          51.8500  -133.0800    32.5780 ca         1 VOX      -0.115300
     40 C11         49.7180  -132.8040    31.4640 ca         1 VOX      -0.161500
     41 C12         50.2150  -133.4500    30.3420 ca         1 VOX       0.283000
     42 N14         49.4800  -133.7020    29.1820 nu         1 VOX      -0.696000
     43 N15         48.0660  -133.5680    29.2900 nu         1 VOX      -0.676000
     44 C16         47.3220  -133.8470    28.1280 ca         1 VOX       0.256000
     45 C18         45.3730  -133.3650    26.7740 ca         1 VOX      -0.075500
     46 C19         45.8130  -134.2480    25.7880 ca         1 VOX      -0.105300
     47 C23         47.7750  -134.7170    27.1330 ca         1 VOX      -0.153000
     48 H1          56.7590  -136.1600    34.5280 hc         1 VOX       0.059200
     49 H2          56.9760  -134.8520    35.7100 hc         1 VOX       0.059200
     50 H3          56.2330  -133.3520    33.5990 hc         1 VOX       0.040700
     51 H4          55.4190  -134.9120    33.1810 hc         1 VOX       0.040700
     52 H5          54.7660  -134.7500    35.8690 hc         1 VOX       0.040200
     53 H6          54.7990  -133.0910    35.4160 hc         1 VOX       0.040200
     54 H7          52.5360  -134.6460    35.0820 hc         1 VOX       0.037700
     55 H8          53.2490  -134.9540    33.5920 hc         1 VOX       0.037700
     56 H9          53.6190  -132.2690    33.4820 hc         1 VOX       0.046700
     57 H10         52.1470  -132.3200    34.5270 hc         1 VOX       0.046700
     58 H11         50.1060  -132.2420    33.4980 ha         1 VOX       0.112500
     59 H12         52.0470  -134.3540    29.4560 ha         1 VOX       0.117500
     60 H13         45.8120  -132.4230    28.6290 ha         1 VOX       0.109500
     61 H14         44.2240  -135.3870    24.8070 hc         1 VOX       0.040033
     62 H15         44.3480  -133.7340    24.3200 hc         1 VOX       0.040033
     63 H16         45.5820  -134.9380    23.7670 hc         1 VOX       0.040033
     64 H17         47.3760  -135.6500    25.2570 ha         1 VOX       0.113500
     65 H18         53.3710  -134.0400    31.4340 ha         1 VOX       0.112500
     66 H19         62.3660  -135.6990    35.1100 h1         1 VOX       0.087700
     67 H21         62.5720  -136.1120    43.9810 hc         1 VOX       0.062200
     68 H22         64.5910  -136.3110    41.7450 h1         1 VOX       0.085700
     69 H23         64.7700  -134.3700    43.1220 hc         1 VOX       0.041700
     70 H24         64.1340  -133.9210    41.5110 hc         1 VOX       0.041700
     71 H25         63.0700  -133.9860    42.8820 hc         1 VOX       0.041700
     72 H26         61.5990  -135.9590    41.6290 hn         1 VOX       0.329500
     73 H27         63.4570  -138.6770    44.1910 hc         1 VOX       0.062700
     74 H28         63.3880  -138.5520    42.4670 hc         1 VOX       0.062700
     75 H29         61.6280  -139.2740    41.5770 hn         1 VOX       0.308500
     76 H30         59.0290  -138.5960    42.7560 h1         1 VOX       0.064200
     77 H31         59.3870  -140.3190    42.4650 h1         1 VOX       0.064200
     78 H32         58.1080  -139.2050    40.5740 hc         1 VOX       0.060700
     79 H33         59.6410  -139.8730    40.0340 hc         1 VOX       0.060700
     80 H34         59.7060  -137.0430    40.9320 h1         1 VOX       0.025700
     81 H35         57.6520  -137.0900    39.8120 ho         1 VOX       0.441000
     82 H36         60.5420  -138.1240    38.2300 hc         1 VOX       0.063200
     83 H37         61.4460  -138.4790    39.6430 hc         1 VOX       0.063200
     84 H38         60.7460  -135.6040    39.2750 h1         1 VOX       0.113700
     85 H39         62.4910  -136.7300    37.2450 hn         1 VOX       0.321500
     86 H40         62.2040  -132.7710    35.8500 h1         1 VOX       0.065700
     87 H41         63.7080  -133.9180    37.4910 hc         1 VOX       0.049700
     88 H42         64.4040  -134.8940    36.2610 hc         1 VOX       0.049700
     89 H43         64.7330  -133.1410    36.3370 hc         1 VOX       0.049700
     90 H44         63.8040  -132.8490    34.0910 ho         1 VOX       0.449000
     91 H45         60.6740  -133.7560    34.1680 hn         1 VOX       0.330500
     92 H46         58.4230  -135.1440    33.0020 hc         1 VOX       0.046200
     93 H47         58.4240  -133.6630    33.8670 hc         1 VOX       0.046200
     94 H48         48.6680  -132.5760    31.5280 ha         1 VOX       0.117500
     95 H49         49.7320  -134.5410    28.7030 hn         1 VOX       0.472000
     96 H50         47.7760  -132.6800    29.6590 hn         1 VOX       0.457000
     97 H51         44.4710  -132.8050    26.6230 ha         1 VOX       0.113500
     98 H52         48.7100  -135.2650    27.2550 ha         1 VOX       0.109500
     99 H20         64.2140  -136.5000    44.2030 hc         1 VOX       0.062200
@<TRIPOS>BOND
     1     1     2 1   
     2     1    38 1   
     3     1    48 1   
     4     1    49 1   
     5     2     3 1   
     6     2    50 1   
     7     2    51 1   
     8     3     4 1   
     9     3    52 1   
    10     3    53 1   
    11     4     5 1   
    12     4    54 1   
    13     4    55 1   
    14     5    39 1   
    15     5    56 1   
    16     5    57 1   
    17     6    39 ar  
    18     6    40 ar  
    19     6    58 1   
    20     7    11 ar  
    21     7    41 ar  
    22     7    59 1   
    23     8    44 ar  
    24     8    45 ar  
    25     8    60 1   
    26     9    46 1   
    27     9    61 1   
    28     9    62 1   
    29     9    63 1   
    30    10    46 ar  
    31    10    47 ar  
    32    10    64 1   
    33    11    39 ar  
    34    11    65 1   
    35    12    30 1   
    36    12    32 1   
    37    12    35 1   
    38    12    66 1   
    39    13    14 1   
    40    13    19 1   
    41    13    67 1   
    42    13    99 1   
    43    14    15 1   
    44    14    16 1   
    45    14    68 1   
    46    15    69 1   
    47    15    70 1   
    48    15    71 1   
    49    16    17 1   
    50    16    72 1   
    51    17    18 2   
    52    17    28 1   
    53    19    20 1   
    54    19    73 1   
    55    19    74 1   
    56    20    21 2   
    57    20    22 1   
    58    22    23 1   
    59    22    75 1   
    60    23    24 1   
    61    23    76 1   
    62    23    77 1   
    63    24    25 1   
    64    24    78 1   
    65    24    79 1   
    66    25    26 1   
    67    25    27 1   
    68    25    80 1   
    69    26    81 1   
    70    27    28 1   
    71    27    82 1   
    72    27    83 1   
    73    28    29 1   
    74    28    84 1   
    75    29    30 1   
    76    29    85 1   
    77    30    31 2   
    78    32    33 1   
    79    32    34 1   
    80    32    86 1   
    81    33    87 1   
    82    33    88 1   
    83    33    89 1   
    84    34    90 1   
    85    35    36 1   
    86    35    91 1   
    87    36    37 2   
    88    36    38 1   
    89    38    92 1   
    90    38    93 1   
    91    40    41 ar  
    92    40    94 1   
    93    41    42 1   
    94    42    43 1   
    95    42    95 1   
    96    43    44 1   
    97    43    96 1   
    98    44    47 ar  
    99    45    46 ar  
   100    45    97 1   
   101    47    98 1   
@<TRIPOS>SUBSTRUCTURE
     1 VOX         1 TEMP              0 ****  ****    0 ROOT
