@<TRIPOS>MOLECULE
VOX
   99   101     1     0     0
SMALL
No Charge or Current Charge


@<TRIPOS>ATOM
      1 C4          57.1830  -135.7740    34.4000 c3         1 VOX      -0.072400
      2 C5          56.0540  -135.6520    33.3530 c3         1 VOX      -0.077400
      3 C6          54.6410  -135.7300    33.9780 c3         1 VOX      -0.072400
      4 C7          53.4840  -135.7000    32.9510 c3         1 VOX      -0.080400
      5 C8          53.3510  -134.3730    32.1700 c3         1 VOX      -0.023100
      6 C10         50.9120  -133.8240    31.7020 ca         1 VOX      -0.073500
      7 C13         51.0820  -134.9230    29.1270 ca         1 VOX      -0.161500
      8 C17         46.0680  -131.9940    27.7110 ca         1 VOX      -0.153000
      9 C20         43.8140  -132.5340    24.6550 c3         1 VOX      -0.046800
     10 C22         45.5020  -134.0130    25.8460 ca         1 VOX      -0.075500
     11 C24         52.2090  -134.9220    29.9670 ca         1 VOX      -0.073500
     12 C26         61.4720  -134.5370    36.1060 c3         1 VOX       0.057700
     13 C36         63.7310  -136.6440    44.1490 c3         1 VOX      -0.085400
     14 C34         64.0290  -135.8470    42.8530 c3         1 VOX       0.099700
     15 C35         64.5250  -134.4190    43.1550 c3         1 VOX      -0.120100
     16 N33         62.8640  -135.7750    41.9690 ns         1 VOX      -0.492900
     17 C31         62.9120  -135.8430    40.5910 c          1 VOX       0.593100
     18 O32         63.9680  -136.0200    39.9960 o          1 VOX      -0.616100
     19 C37         63.4910  -138.1700    43.9620 c3         1 VOX      -0.147400
     20 C38         62.0510  -138.5400    43.5840 c          1 VOX       0.589100
     21 O39         61.1200  -138.4280    44.3680 o          1 VOX      -0.626100
     22 N40         61.8940  -139.0640    42.3190 ns         1 VOX      -0.508900
     23 C41         60.6340  -139.5630    41.7420 c3         1 VOX       0.113000
     24 C42         59.4890  -138.5200    41.6580 c3         1 VOX      -0.143400
     25 C43         59.9330  -137.0770    41.3240 c3         1 VOX       0.172300
     26 O44         58.7860  -136.2270    41.3290 oh         1 VOX      -0.632000
     27 C45         60.6610  -136.9340    39.9610 c3         1 VOX      -0.072400
     28 C30         61.5540  -135.6680    39.8440 c3         1 VOX       0.001700
     29 N29         61.8240  -135.3620    38.4190 ns         1 VOX      -0.455900
     30 C27         60.9500  -134.7260    37.5590 c          1 VOX       0.595100
     31 O28         59.8480  -134.3400    37.9320 o          1 VOX      -0.593100
     32 C46         62.2070  -133.1710    35.9560 c3         1 VOX       0.154300
     33 C48         63.5630  -133.1100    36.6900 c3         1 VOX      -0.145100
     34 O47         62.4390  -132.8860    34.5670 oh         1 VOX      -0.687000
     35 N25         60.3520  -134.6450    35.1380 ns         1 VOX      -0.487900
     36 C1          59.6880  -135.8120    34.8470 c          1 VOX       0.582100
     37 O2          59.9730  -136.8720    35.3860 o          1 VOX      -0.611100
     38 C3          58.5960  -135.6930    33.7770 c3         1 VOX      -0.140400
     39 C9          52.1310  -134.3690    31.2580 ca         1 VOX      -0.115300
     40 C11         49.7850  -133.8250    30.8600 ca         1 VOX      -0.161500
     41 C12         49.8650  -134.3700    29.5620 ca         1 VOX       0.283000
     42 N14         48.7560  -134.3920    28.6910 nu         1 VOX      -0.696000
     43 N15         47.6790  -133.4140    28.8380 nu         1 VOX      -0.676000
     44 C16         46.7410  -133.2250    27.8010 ca         1 VOX       0.256000
     45 C18         45.1230  -131.7680    26.6930 ca         1 VOX      -0.075500
     46 C19         44.8390  -132.7760    25.7540 ca         1 VOX      -0.105300
     47 C23         46.4460  -134.2380    26.8640 ca         1 VOX      -0.153000
     48 H1          57.0780  -136.7260    34.9350 hc         1 VOX       0.059200
     49 H2          57.0720  -134.9760    35.1460 hc         1 VOX       0.059200
     50 H3          56.1680  -134.7000    32.8210 hc         1 VOX       0.040700
     51 H4          56.1640  -136.4510    32.6090 hc         1 VOX       0.040700
     52 H5          54.5630  -136.6590    34.5560 hc         1 VOX       0.040200
     53 H6          54.5120  -134.9070    34.6920 hc         1 VOX       0.040200
     54 H7          52.5440  -135.8850    33.4860 hc         1 VOX       0.037700
     55 H8          53.6060  -136.5280    32.2420 hc         1 VOX       0.037700
     56 H9          54.2550  -134.2040    31.5740 hc         1 VOX       0.046700
     57 H10         53.2930  -133.5400    32.8820 hc         1 VOX       0.046700
     58 H11         50.8340  -133.4030    32.7030 ha         1 VOX       0.112500
     59 H12         51.1580  -135.3540    28.1320 ha         1 VOX       0.117500
     60 H13         46.2760  -131.2060    28.4290 ha         1 VOX       0.109500
     61 H14         42.8110  -132.8270    24.9860 hc         1 VOX       0.040033
     62 H15         43.7770  -131.4760    24.3690 hc         1 VOX       0.040033
     63 H16         44.0520  -133.1100    23.7530 hc         1 VOX       0.040033
     64 H17         45.2830  -134.8050    25.1320 ha         1 VOX       0.113500
     65 H18         53.1440  -135.3530    29.6140 ha         1 VOX       0.112500
     66 H19         62.1830  -135.3460    35.8960 h1         1 VOX       0.087700
     67 H21         62.8830  -136.1930    44.6820 hc         1 VOX       0.062200
     68 H22         64.8400  -136.3700    42.3250 h1         1 VOX       0.085700
     69 H23         65.4310  -134.4460    43.7720 hc         1 VOX       0.041700
     70 H24         64.7650  -133.8890    42.2260 hc         1 VOX       0.041700
     71 H25         63.7590  -133.8450    43.6920 hc         1 VOX       0.041700
     72 H26         61.9600  -135.5870    42.3860 hn         1 VOX       0.329500
     73 H27         63.7050  -138.6550    44.9220 hc         1 VOX       0.062700
     74 H28         64.1940  -138.5510    43.2120 hc         1 VOX       0.062700
     75 H29         62.7360  -139.1410    41.7600 hn         1 VOX       0.308500
     76 H30         60.2940  -140.4300    42.3250 h1         1 VOX       0.064200
     77 H31         60.8550  -139.9250    40.7290 h1         1 VOX       0.064200
     78 H32         58.9730  -138.5070    42.6260 hc         1 VOX       0.060700
     79 H33         58.7520  -138.8630    40.9210 hc         1 VOX       0.060700
     80 H34         60.6010  -136.7590    42.1280 h1         1 VOX       0.025700
     81 H35         58.3380  -136.3510    42.1930 ho         1 VOX       0.441000
     82 H36         59.9040  -136.9300    39.1670 hc         1 VOX       0.063200
     83 H37         61.2900  -137.8100    39.7650 hc         1 VOX       0.063200
     84 H38         61.0350  -134.8100    40.2930 h1         1 VOX       0.113700
     85 H39         62.7260  -135.6370    38.0410 hn         1 VOX       0.321500
     86 H40         61.5570  -132.3920    36.3810 h1         1 VOX       0.065700
     87 H41         63.4300  -133.2170    37.7720 hc         1 VOX       0.049700
     88 H42         64.2330  -133.9070    36.3430 hc         1 VOX       0.049700
     89 H43         64.0570  -132.1470    36.5140 hc         1 VOX       0.049700
     90 H44         62.9080  -132.0230    34.5220 ho         1 VOX       0.449000
     91 H45         60.0950  -133.8200    34.6090 hn         1 VOX       0.330500
     92 H46         58.7100  -136.5190    33.0650 hc         1 VOX       0.046200
     93 H47         58.6890  -134.7350    33.2510 hc         1 VOX       0.046200
     94 H48         48.8510  -133.4130    31.2280 ha         1 VOX       0.117500
     95 H49         48.9420  -134.7440    27.7400 hn         1 VOX       0.472000
     96 H50         47.8740  -132.5880    29.4210 hn         1 VOX       0.457000
     97 H51         44.6130  -130.8090    26.6380 ha         1 VOX       0.113500
     98 H52         46.9350  -135.2050    26.9250 ha         1 VOX       0.109500
     99 H20         64.5970  -136.5310    44.8130 hc         1 VOX       0.062200
@<TRIPOS>BOND
     1     1     2 1   
     2     1    38 1   
     3     1    48 1   
     4     1    49 1   
     5     2     3 1   
     6     2    50 1   
     7     2    51 1   
     8     3     4 1   
     9     3    52 1   
    10     3    53 1   
    11     4     5 1   
    12     4    54 1   
    13     4    55 1   
    14     5    39 1   
    15     5    56 1   
    16     5    57 1   
    17     6    39 ar  
    18     6    40 ar  
    19     6    58 1   
    20     7    11 ar  
    21     7    41 ar  
    22     7    59 1   
    23     8    44 ar  
    24     8    45 ar  
    25     8    60 1   
    26     9    46 1   
    27     9    61 1   
    28     9    62 1   
    29     9    63 1   
    30    10    46 ar  
    31    10    47 ar  
    32    10    64 1   
    33    11    39 ar  
    34    11    65 1   
    35    12    30 1   
    36    12    32 1   
    37    12    35 1   
    38    12    66 1   
    39    13    14 1   
    40    13    19 1   
    41    13    67 1   
    42    13    99 1   
    43    14    15 1   
    44    14    16 1   
    45    14    68 1   
    46    15    69 1   
    47    15    70 1   
    48    15    71 1   
    49    16    17 1   
    50    16    72 1   
    51    17    18 2   
    52    17    28 1   
    53    19    20 1   
    54    19    73 1   
    55    19    74 1   
    56    20    21 2   
    57    20    22 1   
    58    22    23 1   
    59    22    75 1   
    60    23    24 1   
    61    23    76 1   
    62    23    77 1   
    63    24    25 1   
    64    24    78 1   
    65    24    79 1   
    66    25    26 1   
    67    25    27 1   
    68    25    80 1   
    69    26    81 1   
    70    27    28 1   
    71    27    82 1   
    72    27    83 1   
    73    28    29 1   
    74    28    84 1   
    75    29    30 1   
    76    29    85 1   
    77    30    31 2   
    78    32    33 1   
    79    32    34 1   
    80    32    86 1   
    81    33    87 1   
    82    33    88 1   
    83    33    89 1   
    84    34    90 1   
    85    35    36 1   
    86    35    91 1   
    87    36    37 2   
    88    36    38 1   
    89    38    92 1   
    90    38    93 1   
    91    40    41 ar  
    92    40    94 1   
    93    41    42 1   
    94    42    43 1   
    95    42    95 1   
    96    43    44 1   
    97    43    96 1   
    98    44    47 ar  
    99    45    46 ar  
   100    45    97 1   
   101    47    98 1   
@<TRIPOS>SUBSTRUCTURE
     1 VOX         1 TEMP              0 ****  ****    0 ROOT
