@<TRIPOS>MOLECULE
VOY
   72    76     1     0     0
SMALL
abcg2


@<TRIPOS>ATOM
      1 C01         71.6330     8.6600    90.2520 c3         1 VOY      -0.098100
      2 C02         70.3530     9.1870    89.6530 c3         1 VOY       0.169600
      3 C04         69.5430     9.7400    87.4730 ca         1 VOY       0.136100
      4 C05         68.3100    10.1250    87.9270 ca         1 VOY      -0.182000
      5 C06         67.3240    10.5920    87.0370 ca         1 VOY       0.327000
      6 C07         67.6130    10.6460    85.6570 ca         1 VOY      -0.140000
      7 C08         66.5940    11.1100    84.7640 ca         1 VOY       0.434000
      8 C10         66.1070    11.9190    82.5000 ca         1 VOY       0.277000
      9 C11         65.4760    11.3160    81.4220 ca         1 VOY      -0.113000
     10 C12         64.7640    12.0990    80.5280 ca         1 VOY      -0.087000
     11 C13         64.6920    13.4670    80.7220 ca         1 VOY       0.082100
     12 C15         62.7490    14.6370    80.1070 cc         1 VOY       0.161100
     13 C16         62.0510    14.2440    81.2190 cd         1 VOY      -0.185000
     14 C17         60.7570    14.7660    81.3940 cd         1 VOY      -0.030000
     15 C19         58.8320    15.3600    81.9410 cc         1 VOY       0.533200
     16 C22         60.9310    16.0200    79.3600 cd         1 VOY      -0.049000
     17 C23         62.1810    15.5350    79.1650 cc         1 VOY      -0.177000
     18 C24         65.3410    14.1020    81.7800 ca         1 VOY      -0.057300
     19 C25         65.2800    15.5890    81.9570 c3         1 VOY      -0.050800
     20 C26         66.0590    13.3000    82.6560 ca         1 VOY      -0.111000
     21 C27         65.3810    11.4980    85.3480 ca         1 VOY      -0.192000
     22 C28         64.2260    11.8770    84.6160 cg         1 VOY       0.343000
     23 C30         65.2310    11.4200    86.7520 ca         1 VOY       0.422900
     24 C32         68.8990    10.2740    85.2070 ca         1 VOY      -0.105000
     25 C33         69.8590     9.8270    86.0800 ca         1 VOY      -0.044000
     26 C35         71.7310     9.4340    84.4970 c          1 VOY       0.615300
     27 C36         73.1580     9.0410    84.5330 ce         1 VOY      -0.312200
     28 C37         73.8980     9.0050    83.4270 c2         1 VOY      -0.112200
     29 C38         75.3550     8.6690    83.4160 c3         1 VOY       0.182000
     30 C40         76.9870     7.0950    82.6660 c3         1 VOY       0.145600
     31 C41         75.6750     8.2660    81.0630 c3         1 VOY       0.145600
     32 N09         66.8210    11.1390    83.4330 nu         1 VOY      -0.988000
     33 N18         59.8510    14.5850    82.3460 nc         1 VOY      -0.397300
     34 N20         59.0120    16.0160    80.8150 nd         1 VOY      -0.605100
     35 N21         60.2490    15.6320    80.4630 na         1 VOY       0.269400
     36 N29         63.2270    12.1670    84.1150 n1         1 VOY      -0.471000
     37 N31         66.1380    10.9860    87.5710 nb         1 VOY      -0.698000
     38 N34         71.1540     9.4630    85.7310 ns         1 VOY      -0.135000
     39 N39         75.6970     7.6940    82.3930 n3         1 VOY      -0.705600
     40 O03         70.5360     9.2850    88.2420 os         1 VOY      -0.372100
     41 O14         63.9970    14.2240    79.8050 os         1 VOY      -0.244200
     42 O42         71.1370     9.7070    83.4660 o          1 VOY      -0.600100
     43 H1          71.5170     8.5830    91.3330 hc         1 VOY       0.049367
     44 H2          71.8740     7.6680    89.8700 hc         1 VOY       0.049367
     45 H3          72.4720     9.3260    90.0520 hc         1 VOY       0.049367
     46 H4          70.1090    10.1730    90.0610 h1         1 VOY       0.043700
     47 H5          69.5170     8.5160    89.8700 h1         1 VOY       0.043700
     48 H6          68.0530    10.0890    88.9770 ha         1 VOY       0.140000
     49 H7          65.5200    10.2420    81.2940 ha         1 VOY       0.129000
     50 H8          64.2560    11.6450    79.6860 ha         1 VOY       0.135000
     51 H9          62.4450    13.5610    81.9600 ha         1 VOY       0.177000
     52 H10         57.9100    15.4510    82.4960 h5         1 VOY       0.069800
     53 H11         60.4340    16.7050    78.6900 h4         1 VOY       0.163000
     54 H12         62.7410    15.8360    78.2920 ha         1 VOY       0.148000
     55 H13         64.2780    15.9180    82.2380 hc         1 VOY       0.052700
     56 H14         65.9630    15.9100    82.7410 hc         1 VOY       0.052700
     57 H15         65.5490    16.1150    81.0400 hc         1 VOY       0.052700
     58 H16         66.5870    13.7620    83.4830 ha         1 VOY       0.130000
     59 H17         64.2830    11.7290    87.1820 h4         1 VOY       0.027100
     60 H18         69.1620    10.3550    84.1660 ha         1 VOY       0.147000
     61 H19         73.5990     8.7920    85.4940 ha         1 VOY       0.180000
     62 H21         73.4330     9.2610    82.4800 ha         1 VOY       0.197000
     63 H23         75.6340     8.2660    84.3920 h1         1 VOY       0.043700
     64 H24         75.9310     9.6050    83.2930 h1         1 VOY       0.043700
     65 H25         76.9770     6.6040    83.6410 h1         1 VOY       0.033533
     66 H26         77.2070     6.3360    81.9140 h1         1 VOY       0.033533
     67 H27         77.8150     7.8200    82.6620 h1         1 VOY       0.033533
     68 H28         74.6890     8.6640    80.8200 h1         1 VOY       0.033533
     69 H29         76.4060     9.0790    80.9330 h1         1 VOY       0.033533
     70 H30         75.9000     7.4940    80.3260 h1         1 VOY       0.033533
     71 H31         67.5620    10.5640    83.0640 hn         1 VOY       0.516000
     72 H32         71.7450     9.2050    86.5080 hn         1 VOY       0.172000
@<TRIPOS>BOND
     1     1     2 1   
     2     1    43 1   
     3     1    44 1   
     4     1    45 1   
     5     2    40 1   
     6     2    46 1   
     7     2    47 1   
     8     3     4 ar  
     9     3    25 ar  
    10     3    40 1   
    11     4     5 ar  
    12     4    48 1   
    13     5     6 ar  
    14     5    37 ar  
    15     6     7 ar  
    16     6    24 ar  
    17     7    21 ar  
    18     7    32 1   
    19     8     9 ar  
    20     8    20 ar  
    21     8    32 1   
    22     9    10 ar  
    23     9    49 1   
    24    10    11 ar  
    25    10    50 1   
    26    11    18 ar  
    27    11    41 1   
    28    12    13 2   
    29    12    17 1   
    30    12    41 1   
    31    13    14 1   
    32    13    51 1   
    33    14    33 2   
    34    14    35 1   
    35    15    33 1   
    36    15    34 2   
    37    15    52 1   
    38    16    17 2   
    39    16    35 1   
    40    16    53 1   
    41    17    54 1   
    42    18    19 1   
    43    18    20 ar  
    44    19    55 1   
    45    19    56 1   
    46    19    57 1   
    47    20    58 1   
    48    21    22 1   
    49    21    23 ar  
    50    22    36 3   
    51    23    37 ar  
    52    23    59 1   
    53    24    25 ar  
    54    24    60 1   
    55    25    38 1   
    56    26    27 1   
    57    26    38 1   
    58    26    42 2   
    59    27    28 2   
    60    27    61 1   
    61    28    29 1   
    62    28    62 1   
    63    29    39 1   
    64    29    63 1   
    65    29    64 1   
    66    30    39 1   
    67    30    65 1   
    68    30    66 1   
    69    30    67 1   
    70    31    39 1   
    71    31    68 1   
    72    31    69 1   
    73    31    70 1   
    74    32    71 1   
    75    34    35 1   
    76    38    72 1   
@<TRIPOS>SUBSTRUCTURE
     1 VOY         1 TEMP              0 ****  ****    0 ROOT
