@<TRIPOS>MOLECULE
VOY
   72    76     1     0     0
SMALL
No Charge or Current Charge


@<TRIPOS>ATOM
      1 C01         72.3770     9.1810    89.6910 c3         1 VOY      -0.098100
      2 C02         70.9240     9.4790    89.2910 c3         1 VOY       0.169600
      3 C04         69.7210     9.8660    87.1620 ca         1 VOY       0.136100
      4 C05         68.4860    10.0440    87.8170 ca         1 VOY      -0.182000
      5 C06         67.3170    10.3160    87.0940 ca         1 VOY       0.327000
      6 C07         67.3790    10.4130    85.6850 ca         1 VOY      -0.140000
      7 C08         66.1870    10.6980    84.9770 ca         1 VOY       0.434000
      8 C10         65.7870    11.7760    82.6850 ca         1 VOY       0.277000
      9 C11         65.7260    11.4880    81.3140 ca         1 VOY      -0.113000
     10 C12         65.3180    12.4760    80.4020 ca         1 VOY      -0.087000
     11 C13         64.9590    13.7590    80.8500 ca         1 VOY       0.082100
     12 C15         63.2690    15.0880    80.1280 cc         1 VOY       0.161100
     13 C16         62.2860    14.1180    80.1010 cd         1 VOY      -0.185000
     14 C17         60.9700    14.6180    80.3250 cd         1 VOY      -0.030000
     15 C19         58.9200    14.9480    80.6030 cc         1 VOY       0.533200
     16 C22         61.6700    16.9480    80.5260 cd         1 VOY      -0.049000
     17 C23         62.9670    16.4850    80.3110 cc         1 VOY      -0.177000
     18 C24         65.0630    14.0760    82.2320 ca         1 VOY      -0.057300
     19 C25         64.7920    15.4730    82.7800 c3         1 VOY      -0.050800
     20 C26         65.4720    13.0710    83.1330 ca         1 VOY      -0.111000
     21 C27         64.9940    10.8580    85.7010 ca         1 VOY      -0.192000
     22 C28         63.7250    11.0830    85.0810 cg         1 VOY       0.343000
     23 C30         65.0350    10.7440    87.0890 ca         1 VOY       0.422900
     24 C32         68.6220    10.2440    85.0260 ca         1 VOY      -0.105000
     25 C33         69.7940     9.9610    85.7590 ca         1 VOY      -0.044000
     26 C35         71.4730     9.6640    83.8270 c          1 VOY       0.615300
     27 C36         72.9450     9.4960    83.6650 ce         1 VOY      -0.312200
     28 C37         73.5520     9.1780    82.4950 c2         1 VOY      -0.112200
     29 C38         75.0410     8.9700    82.2980 c3         1 VOY       0.182000
     30 C40         77.0870     7.9450    83.2040 c3         1 VOY       0.145600
     31 C41         75.0280     6.6100    83.0550 c3         1 VOY       0.145600
     32 N09         66.2000    10.7830    83.5770 nu         1 VOY      -0.988000
     33 N18         59.8420    13.9510    80.3640 nc         1 VOY      -0.397300
     34 N20         59.3720    16.1980    80.7160 nd         1 VOY      -0.605100
     35 N21         60.6930    15.9470    80.5390 na         1 VOY       0.269400
     36 N29         62.6800    11.2680    84.5950 n1         1 VOY      -0.471000
     37 N31         66.1660    10.4810    87.7750 nb         1 VOY      -0.698000
     38 N34         71.0700     9.7810    85.1490 ns         1 VOY      -0.135000
     39 N39         75.6080     7.9640    83.2290 n3         1 VOY      -0.705600
     40 O03         70.8870     9.5980    87.8580 os         1 VOY      -0.372100
     41 O14         64.5580    14.6740    79.8900 os         1 VOY      -0.244200
     42 O42         70.7120     9.6540    82.8670 o          1 VOY      -0.600100
     43 H1          72.4580     9.0800    90.7790 hc         1 VOY       0.049367
     44 H2          72.7190     8.2450    89.2320 hc         1 VOY       0.049367
     45 H3          73.0400     9.9930    89.3700 hc         1 VOY       0.049367
     46 H4          70.5980    10.4120    89.7690 h1         1 VOY       0.043700
     47 H5          70.2760     8.6610    89.6320 h1         1 VOY       0.043700
     48 H6          68.4120     9.9760    88.8960 ha         1 VOY       0.140000
     49 H7          65.9840    10.4970    80.9530 ha         1 VOY       0.129000
     50 H8          65.2640    12.2410    79.3420 ha         1 VOY       0.135000
     51 H9          62.4910    13.0680    79.9260 ha         1 VOY       0.177000
     52 H10         57.8740    14.6760    80.6850 h5         1 VOY       0.069800
     53 H11         61.3650    17.9760    80.6750 h4         1 VOY       0.163000
     54 H12         63.7920    17.1890    80.2780 ha         1 VOY       0.148000
     55 H13         63.7170    15.6430    82.9150 hc         1 VOY       0.052700
     56 H14         65.2710    15.6240    83.7550 hc         1 VOY       0.052700
     57 H15         65.1850    16.2470    82.1120 hc         1 VOY       0.052700
     58 H16         65.5600    13.3050    84.1900 ha         1 VOY       0.130000
     59 H17         64.1300    10.8540    87.6870 h4         1 VOY       0.027100
     60 H18         68.6770    10.3520    83.9480 ha         1 VOY       0.147000
     61 H19         73.5410     9.5960    84.5710 ha         1 VOY       0.180000
     62 H21         72.9700     9.0500    81.5800 ha         1 VOY       0.197000
     63 H23         75.5400     9.9370    82.4470 h1         1 VOY       0.043700
     64 H24         75.2300     8.6710    81.2570 h1         1 VOY       0.043700
     65 H25         77.4930     8.9420    83.4220 h1         1 VOY       0.033533
     66 H26         77.4800     7.2500    83.9590 h1         1 VOY       0.033533
     67 H27         77.4600     7.6300    82.2200 h1         1 VOY       0.033533
     68 H28         73.9390     6.6260    83.1890 h1         1 VOY       0.033533
     69 H29         75.2460     6.2170    82.0520 h1         1 VOY       0.033533
     70 H30         75.4450     5.9130    83.7940 h1         1 VOY       0.033533
     71 H31         66.7200    10.0240    83.1360 hn         1 VOY       0.516000
     72 H32         71.8270     9.7240    85.8180 hn         1 VOY       0.172000
@<TRIPOS>BOND
     1     1     2 1   
     2     1    43 1   
     3     1    44 1   
     4     1    45 1   
     5     2    40 1   
     6     2    46 1   
     7     2    47 1   
     8     3     4 ar  
     9     3    25 ar  
    10     3    40 1   
    11     4     5 ar  
    12     4    48 1   
    13     5     6 ar  
    14     5    37 ar  
    15     6     7 ar  
    16     6    24 ar  
    17     7    21 ar  
    18     7    32 1   
    19     8     9 ar  
    20     8    20 ar  
    21     8    32 1   
    22     9    10 ar  
    23     9    49 1   
    24    10    11 ar  
    25    10    50 1   
    26    11    18 ar  
    27    11    41 1   
    28    12    13 2   
    29    12    17 1   
    30    12    41 1   
    31    13    14 1   
    32    13    51 1   
    33    14    33 2   
    34    14    35 1   
    35    15    33 1   
    36    15    34 2   
    37    15    52 1   
    38    16    17 2   
    39    16    35 1   
    40    16    53 1   
    41    17    54 1   
    42    18    19 1   
    43    18    20 ar  
    44    19    55 1   
    45    19    56 1   
    46    19    57 1   
    47    20    58 1   
    48    21    22 1   
    49    21    23 ar  
    50    22    36 3   
    51    23    37 ar  
    52    23    59 1   
    53    24    25 ar  
    54    24    60 1   
    55    25    38 1   
    56    26    27 1   
    57    26    38 1   
    58    26    42 2   
    59    27    28 2   
    60    27    61 1   
    61    28    29 1   
    62    28    62 1   
    63    29    39 1   
    64    29    63 1   
    65    29    64 1   
    66    30    39 1   
    67    30    65 1   
    68    30    66 1   
    69    30    67 1   
    70    31    39 1   
    71    31    68 1   
    72    31    69 1   
    73    31    70 1   
    74    32    71 1   
    75    34    35 1   
    76    38    72 1   
@<TRIPOS>SUBSTRUCTURE
     1 VOY         1 TEMP              0 ****  ****    0 ROOT
