@<TRIPOS>MOLECULE
VOZ
   46    50     1     0     0
SMALL
No Charge or Current Charge


@<TRIPOS>ATOM
      1 O15          7.8810     7.5390    19.7730 o          1 VOZ      -0.627100
      2 C2           8.0440     6.6530    20.6050 c          1 VOZ       0.633300
      3 C3           8.1370     7.0060    22.0600 cc         1 VOZ      -0.133300
      4 N14          7.8590     8.2580    22.6620 na         1 VOZ      -0.196700
      5 C6           8.1250     8.2190    24.0210 ca         1 VOZ      -0.026200
      6 C7           7.9730     9.2260    24.9830 ca         1 VOZ      -0.125000
      7 C8           8.3290     8.9360    26.3230 ca         1 VOZ      -0.014300
      8 C9           8.1720    10.0090    27.3750 cx         1 VOZ      -0.090400
      9 C11          9.1510    10.1700    28.5190 cx         1 VOZ      -0.121900
     10 C10          7.7440     9.6960    28.7920 cx         1 VOZ      -0.121900
     11 C12          8.8280     7.6430    26.6480 ca         1 VOZ      -0.141000
     12 C13          8.9710     6.6500    25.6550 ca         1 VOZ      -0.053000
     13 C5           8.6010     6.9870    24.3490 ca         1 VOZ      -0.119800
     14 C4           8.6220     6.2370    23.1210 cd         1 VOZ      -0.191200
     15 N1           8.1560     5.2930    20.2040 n          1 VOZ      -0.393800
     16 C21          8.4140     4.9630    18.7820 c3         1 VOZ       0.142300
     17 C20          9.7720     4.3050    18.5800 ca         1 VOZ      -0.068300
     18 C22         10.7710     4.9490    17.8270 ca         1 VOZ      -0.138000
     19 C23         12.0180     4.3280    17.6550 ca         1 VOZ       0.330900
     20 N24         12.3170     3.1200    18.1840 nb         1 VOZ      -0.658000
     21 C25         11.3600     2.5000    18.9110 ca         1 VOZ       0.330900
     22 C19         10.0770     3.0450    19.1420 ca         1 VOZ      -0.120300
     23 C18          9.0620     2.2680    19.9810 c3         1 VOZ      -0.024100
     24 C17          8.6110     3.0190    21.2570 c3         1 VOZ      -0.099400
     25 C16          7.6110     4.1750    21.0120 c3         1 VOZ       0.103000
     26 H1           7.5220     9.0750    22.1620 hn         1 VOZ       0.370000
     27 H2           7.5920    10.2050    24.7020 ha         1 VOZ       0.117000
     28 H3           7.7790    10.9340    26.9590 hc         1 VOZ       0.078700
     29 H4           9.9590     9.4490    28.6130 hc         1 VOZ       0.073450
     30 H5           9.4120    11.1820    28.8200 hc         1 VOZ       0.073450
     31 H6           7.0610    10.3890    29.2780 hc         1 VOZ       0.073450
     32 H7           7.6030     8.6540    29.0720 hc         1 VOZ       0.073450
     33 H8           9.1080     7.4020    27.6700 ha         1 VOZ       0.111000
     34 H9           9.3530     5.6610    25.8960 ha         1 VOZ       0.114000
     35 H10          9.0330     5.2370    23.0390 ha         1 VOZ       0.203000
     36 H11          8.3540     5.8590    18.1520 h1         1 VOZ       0.070700
     37 H12          7.6310     4.2830    18.4200 h1         1 VOZ       0.070700
     38 H13         10.5920     5.9220    17.3770 ha         1 VOZ       0.132000
     39 H14         12.8030     4.8120    17.0740 h4         1 VOZ       0.022100
     40 H15         11.6330     1.5300    19.3260 h4         1 VOZ       0.016100
     41 H16          8.1830     2.0150    19.3760 hc         1 VOZ       0.049200
     42 H17          9.4950     1.3080    20.2890 hc         1 VOZ       0.049200
     43 H18          8.1290     2.2970    21.9280 hc         1 VOZ       0.055200
     44 H19          9.4970     3.3900    21.7850 hc         1 VOZ       0.055200
     45 H20          7.2150     4.5350    21.9670 h1         1 VOZ       0.057700
     46 H21          6.7430     3.7650    20.4790 h1         1 VOZ       0.057700
@<TRIPOS>BOND
     1     1     2 2   
     2     2     3 1   
     3     2    15 1   
     4     3     4 1   
     5     3    14 2   
     6     4     5 1   
     7     4    26 1   
     8     5     6 ar  
     9     5    13 ar  
    10     6     7 ar  
    11     6    27 1   
    12     7     8 1   
    13     7    11 ar  
    14     8     9 1   
    15     8    10 1   
    16     8    28 1   
    17     9    10 1   
    18     9    29 1   
    19     9    30 1   
    20    10    31 1   
    21    10    32 1   
    22    11    12 ar  
    23    11    33 1   
    24    12    13 ar  
    25    12    34 1   
    26    13    14 1   
    27    14    35 1   
    28    15    16 1   
    29    15    25 1   
    30    16    17 1   
    31    16    36 1   
    32    16    37 1   
    33    17    18 ar  
    34    17    22 ar  
    35    18    19 ar  
    36    18    38 1   
    37    19    20 ar  
    38    19    39 1   
    39    20    21 ar  
    40    21    22 ar  
    41    21    40 1   
    42    22    23 1   
    43    23    24 1   
    44    23    41 1   
    45    23    42 1   
    46    24    25 1   
    47    24    43 1   
    48    24    44 1   
    49    25    45 1   
    50    25    46 1   
@<TRIPOS>SUBSTRUCTURE
     1 VOZ         1 TEMP              0 ****  ****    0 ROOT
