@<TRIPOS>MOLECULE
VOZ
   46    50     1     0     0
SMALL
abcg2


@<TRIPOS>ATOM
      1 O15          8.6710     7.3060    20.0860 o          1 VOZ      -0.627100
      2 C2           8.3340     6.3570    20.8120 c          1 VOZ       0.633300
      3 C3           8.2980     6.5900    22.2740 cc         1 VOZ      -0.133300
      4 N14          8.2560     7.9160    22.6680 na         1 VOZ      -0.196700
      5 C6           8.3290     8.0050    24.0280 ca         1 VOZ      -0.026200
      6 C7           8.3160     9.1210    24.8680 ca         1 VOZ      -0.125000
      7 C8           8.4060     8.9190    26.2390 ca         1 VOZ      -0.014300
      8 C9           8.3940    10.0970    27.1430 cx         1 VOZ      -0.090400
      9 C11          9.1910    10.1220    28.4290 cx         1 VOZ      -0.121900
     10 C10          7.6950    10.0580    28.4850 cx         1 VOZ      -0.121900
     11 C12          8.5050     7.5980    26.7470 ca         1 VOZ      -0.141000
     12 C13          8.5180     6.4950    25.9200 ca         1 VOZ      -0.053000
     13 C5           8.4280     6.6810    24.5310 ca         1 VOZ      -0.119800
     14 C4           8.4090     5.8040    23.4060 cd         1 VOZ      -0.191200
     15 N1           7.9960     5.1550    20.2850 n          1 VOZ      -0.393800
     16 C21          8.2260     4.9510    18.8540 c3         1 VOZ       0.142300
     17 C20          9.6320     4.4740    18.5830 ca         1 VOZ      -0.068300
     18 C22         10.4990     5.2330    17.8070 ca         1 VOZ      -0.138000
     19 C23         11.7970     4.7870    17.5960 ca         1 VOZ       0.330900
     20 N24         12.2630     3.6470    18.1090 nb         1 VOZ      -0.658000
     21 C25         11.4210     2.9190    18.8490 ca         1 VOZ       0.330900
     22 C19         10.1000     3.2680    19.1230 ca         1 VOZ      -0.120300
     23 C18          9.2370     2.3500    19.9510 c3         1 VOZ      -0.024100
     24 C17          8.6710     2.9540    21.2470 c3         1 VOZ      -0.099400
     25 C16          7.5590     3.9770    21.0270 c3         1 VOZ       0.103000
     26 H1           8.2370     8.6810    22.0130 hn         1 VOZ       0.370000
     27 H2           8.2390    10.1220    24.4610 ha         1 VOZ       0.117000
     28 H3           8.3350    11.0430    26.6190 hc         1 VOZ       0.078700
     29 H4           9.7470     9.2300    28.6850 hc         1 VOZ       0.073450
     30 H5           9.6760    11.0520    28.6930 hc         1 VOZ       0.073450
     31 H6           7.1510    10.9420    28.7910 hc         1 VOZ       0.073450
     32 H7           7.2400     9.1200    28.7750 hc         1 VOZ       0.073450
     33 H8           8.5740     7.4490    27.8170 ha         1 VOZ       0.111000
     34 H9           8.5950     5.4980    26.3380 ha         1 VOZ       0.114000
     35 H10          8.5040     4.7350    23.4470 ha         1 VOZ       0.203000
     36 H11          8.0380     5.8810    18.3270 h1         1 VOZ       0.070700
     37 H12          7.5040     4.2070    18.5120 h1         1 VOZ       0.070700
     38 H13         10.1690     6.1700    17.3760 ha         1 VOZ       0.132000
     39 H14         12.4870     5.3710    16.9970 h4         1 VOZ       0.022100
     40 H15         11.8160     1.9910    19.2510 h4         1 VOZ       0.016100
     41 H16          8.4000     1.9960    19.3380 hc         1 VOZ       0.049200
     42 H17          9.8270     1.4690    20.2080 hc         1 VOZ       0.049200
     43 H18          8.2560     2.1430    21.8510 hc         1 VOZ       0.055200
     44 H19          9.4820     3.4050    21.8240 hc         1 VOZ       0.055200
     45 H20          7.1240     4.2920    21.9700 h1         1 VOZ       0.057700
     46 H21          6.7560     3.5170    20.4450 h1         1 VOZ       0.057700
@<TRIPOS>BOND
     1     1     2 2   
     2     2     3 1   
     3     2    15 1   
     4     3     4 1   
     5     3    14 2   
     6     4     5 1   
     7     4    26 1   
     8     5     6 ar  
     9     5    13 ar  
    10     6     7 ar  
    11     6    27 1   
    12     7     8 1   
    13     7    11 ar  
    14     8     9 1   
    15     8    10 1   
    16     8    28 1   
    17     9    10 1   
    18     9    29 1   
    19     9    30 1   
    20    10    31 1   
    21    10    32 1   
    22    11    12 ar  
    23    11    33 1   
    24    12    13 ar  
    25    12    34 1   
    26    13    14 1   
    27    14    35 1   
    28    15    16 1   
    29    15    25 1   
    30    16    17 1   
    31    16    36 1   
    32    16    37 1   
    33    17    18 ar  
    34    17    22 ar  
    35    18    19 ar  
    36    18    38 1   
    37    19    20 ar  
    38    19    39 1   
    39    20    21 ar  
    40    21    22 ar  
    41    21    40 1   
    42    22    23 1   
    43    23    24 1   
    44    23    41 1   
    45    23    42 1   
    46    24    25 1   
    47    24    43 1   
    48    24    44 1   
    49    25    45 1   
    50    25    46 1   
@<TRIPOS>SUBSTRUCTURE
     1 VOZ         1 TEMP              0 ****  ****    0 ROOT
