@<TRIPOS>MOLECULE
VP0
   31    32     1     0     0
SMALL
abcg2


@<TRIPOS>ATOM
      1 C7          23.7870    14.7390    37.1450 ca         1 VP0      -0.120000
      2 C8          23.9380    15.8050    36.2700 ca         1 VP0      -0.102000
      3 C9          23.2010    15.8770    35.0860 ca         1 VP0      -0.062300
      4 O1          21.9760    20.0470    33.2970 o          1 VP0      -0.733000
      5 C5          22.1490    13.7880    35.6660 ca         1 VP0      -0.119000
      6 C6          22.8820    13.7240    36.8430 ca         1 VP0      -0.132000
      7 C4          22.2970    14.8550    34.7760 ca         1 VP0      -0.078300
      8 C3          21.5070    14.8770    33.4890 c6         1 VP0      -0.054100
      9 C2          21.5000    16.2600    32.8500 c6         1 VP0       0.102000
     10 O2          24.1520    20.0340    33.8420 o          1 VP0      -0.733000
     11 C12         22.9780    19.5840    33.9010 c          1 VP0       0.712000
     12 C10         23.3910    17.0790    34.1780 c6         1 VP0       0.153000
     13 N           22.8560    16.7990    32.8420 n          1 VP0      -0.379800
     14 O           24.8650    17.1120    31.8300 o          1 VP0      -0.608100
     15 C           23.0640    16.4100    30.4280 c3         1 VP0      -0.172100
     16 H1          24.3710    14.6980    38.0560 ha         1 VP0       0.100000
     17 H2          24.6420    16.5960    36.5030 ha         1 VP0       0.123000
     18 H4          21.4440    13.0000    35.4260 ha         1 VP0       0.094000
     19 H5          22.7510    12.8890    37.5190 ha         1 VP0       0.095000
     20 H6          20.4820    14.5480    33.6730 hc         1 VP0       0.038700
     21 H7          21.9450    14.1610    32.7850 hc         1 VP0       0.038700
     22 H8          20.8670    16.9390    33.4230 h1         1 VP0       0.059700
     23 H9          21.0990    16.2250    31.8430 h1         1 VP0       0.059700
     24 H10         23.2320    18.5130    35.7550 hc         1 VP0       0.026200
     25 H11         21.6940    18.1870    34.9570 hc         1 VP0       0.026200
     26 H12         24.4540    17.2620    34.0490 h1         1 VP0       0.109700
     27 H13         23.8390    16.4810    29.6700 hc         1 VP0       0.048700
     28 H14         22.6780    15.3900    30.4500 hc         1 VP0       0.048700
     29 H15         22.2390    17.0730    30.1600 hc         1 VP0       0.048700
     30 C1          23.6710    16.7990    31.7600 c          1 VP0       0.608100
     31 C11         22.7590    18.3450    34.7860 c3         1 VP0      -0.202400
@<TRIPOS>BOND
     1     1     2 ar  
     2     1     6 ar  
     3     1    16 1   
     4     2     3 ar  
     5     2    17 1   
     6     3     7 ar  
     7     3    12 1   
     8     4    11 1   
     9     5     6 ar  
    10     5     7 ar  
    11     5    18 1   
    12     6    19 1   
    13     7     8 1   
    14     8     9 1   
    15     8    20 1   
    16     8    21 1   
    17     9    13 1   
    18     9    22 1   
    19     9    23 1   
    20    10    11 1   
    21    11    31 1   
    22    12    13 1   
    23    12    26 1   
    24    12    31 1   
    25    13    30 1   
    26    14    30 2   
    27    15    27 1   
    28    15    28 1   
    29    15    29 1   
    30    15    30 1   
    31    24    31 1   
    32    25    31 1   
@<TRIPOS>SUBSTRUCTURE
     1 VP0         1 TEMP              0 ****  ****    0 ROOT
