@<TRIPOS>MOLECULE
VP0
   31    32     1     0     0
SMALL
No Charge or Current Charge


@<TRIPOS>ATOM
      1 C7          23.7260    14.7750    37.2620 ca         1 VP0      -0.120000
      2 C8          23.8900    15.8390    36.3600 ca         1 VP0      -0.102000
      3 C9          23.1760    15.8660    35.1430 ca         1 VP0      -0.062300
      4 O1          22.3800    19.9310    33.0370 o          1 VP0      -0.733000
      5 C5          22.1440    13.7310    35.7420 ca         1 VP0      -0.119000
      6 C6          22.8510    13.7220    36.9540 ca         1 VP0      -0.132000
      7 C4          22.2990    14.7960    34.8340 ca         1 VP0      -0.078300
      8 C3          21.5380    14.7640    33.5070 c6         1 VP0      -0.054100
      9 C2          21.4850    16.1450    32.8300 c6         1 VP0       0.102000
     10 O2          24.2430    20.1230    34.0990 o          1 VP0      -0.733000
     11 C12         23.1710    19.5740    33.8970 c          1 VP0       0.712000
     12 C10         23.3810    17.0480    34.1680 c6         1 VP0       0.153000
     13 N           22.8400    16.7540    32.8100 n          1 VP0      -0.379800
     14 O           24.7930    17.2620    31.7040 o          1 VP0      -0.608100
     15 C           23.0050    16.5860    30.2750 c3         1 VP0      -0.172100
     16 H1          24.2790    14.7660    38.1980 ha         1 VP0       0.100000
     17 H2          24.5770    16.6450    36.6080 ha         1 VP0       0.123000
     18 H4          21.4750    12.9070    35.5050 ha         1 VP0       0.094000
     19 H5          22.7260    12.8970    37.6510 ha         1 VP0       0.095000
     20 H6          20.5150    14.3940    33.6630 hc         1 VP0       0.038700
     21 H7          22.0280    14.0490    32.8320 hc         1 VP0       0.038700
     22 H8          20.8060    16.7950    33.3980 h1         1 VP0       0.059700
     23 H9          21.0530    16.0470    31.8270 h1         1 VP0       0.059700
     24 H10         23.2790    18.4850    35.7510 hc         1 VP0       0.026200
     25 H11         21.7190    18.2560    34.8320 hc         1 VP0       0.026200
     26 H12         24.4690    17.1910    34.0920 h1         1 VP0       0.109700
     27 H13         23.7010    16.7620    29.4470 hc         1 VP0       0.048700
     28 H14         22.6380    15.5530    30.2680 hc         1 VP0       0.048700
     29 H15         22.0880    17.1730    30.1550 hc         1 VP0       0.048700
     30 C1          23.6280    16.8910    31.6410 c          1 VP0       0.608100
     31 C11         22.8070    18.3660    34.7690 c3         1 VP0      -0.202400
@<TRIPOS>BOND
     1     1     2 ar  
     2     1     6 ar  
     3     1    16 1   
     4     2     3 ar  
     5     2    17 1   
     6     3     7 ar  
     7     3    12 1   
     8     4    11 1   
     9     5     6 ar  
    10     5     7 ar  
    11     5    18 1   
    12     6    19 1   
    13     7     8 1   
    14     8     9 1   
    15     8    20 1   
    16     8    21 1   
    17     9    13 1   
    18     9    22 1   
    19     9    23 1   
    20    10    11 1   
    21    11    31 1   
    22    12    13 1   
    23    12    26 1   
    24    12    31 1   
    25    13    30 1   
    26    14    30 2   
    27    15    27 1   
    28    15    28 1   
    29    15    29 1   
    30    15    30 1   
    31    24    31 1   
    32    25    31 1   
@<TRIPOS>SUBSTRUCTURE
     1 VP0         1 TEMP              0 ****  ****    0 ROOT
