@<TRIPOS>MOLECULE
VP2
   45    47     1     0     0
SMALL
No Charge or Current Charge


@<TRIPOS>ATOM
      1 O1          44.3320   -18.0670    23.1890 o          1 VP2      -0.592100
      2 C2          46.2970   -18.3200    25.2790 c3         1 VP2       0.051000
      3 N1          45.7490   -17.0900    24.6820 ns         1 VP2      -0.504900
      4 C1          44.8010   -17.0530    23.6850 c          1 VP2       0.601100
      5 C15         45.7440   -12.3540    25.4480 cc         1 VP2      -0.155000
      6 C16         47.5360   -13.9070    24.9400 cc         1 VP2      -0.144000
      7 C17         48.1000   -14.9680    25.5920 cd         1 VP2      -0.188000
      8 C3          45.4990   -18.8060    26.5090 c3         1 VP2       0.144300
      9 N2          46.5230   -13.4780    25.7420 na         1 VP2       0.162100
     10 C5          45.0080   -15.2640    21.9380 c3         1 VP2       0.169600
     11 C4          44.3490   -15.6600    23.2660 c3         1 VP2      -0.166400
     12 C6          47.2740   -14.5570    21.2430 ca         1 VP2       0.132100
     13 C7          46.9840   -14.7380    19.8700 ca         1 VP2      -0.182000
     14 N3          47.9040   -16.9350    28.6370 n1         1 VP2      -0.452000
     15 C10         49.4070   -13.5370    20.6130 ca         1 VP2      -0.071000
     16 C11         48.5000   -13.9240    21.6170 ca         1 VP2       0.052100
     17 C12         47.8510   -13.2620    23.7240 cc         1 VP2       0.178100
     18 C13         47.1490   -12.1320    23.3720 cd         1 VP2      -0.204000
     19 C14         46.0810   -11.6980    24.2550 cd         1 VP2      -0.090000
     20 C9          49.1060   -13.7280    19.2550 ca         1 VP2      -0.132000
     21 C8          47.8920   -14.3220    18.8840 ca         1 VP2      -0.068000
     22 C18         47.3990   -15.1470    26.8310 cd         1 VP2      -0.034700
     23 C19         47.6850   -16.1180    27.8320 ch         1 VP2       0.312700
     24 C20         46.3920   -14.1990    26.9160 cc         1 VP2      -0.189100
     25 F1          46.1010   -19.8920    27.0440 f          1 VP2      -0.121000
     26 F2          44.2480   -19.1760    26.1510 f          1 VP2      -0.121000
     27 O2          46.3990   -15.0250    22.2080 os         1 VP2      -0.370100
     28 O3          48.8980   -13.6610    22.9260 os         1 VP2      -0.235200
     29 H1          46.3170   -19.1160    24.5220 h1         1 VP2       0.082700
     30 H2          47.3350   -18.1290    25.5810 h1         1 VP2       0.082700
     31 H3          46.1060   -16.1940    24.9980 hn         1 VP2       0.337500
     32 H4          44.9650   -12.0650    26.1420 h4         1 VP2       0.150000
     33 H5          48.9510   -15.5500    25.2440 ha         1 VP2       0.225000
     34 H6          45.4390   -18.0180    27.2680 h2         1 VP2       0.061700
     35 H7          44.8720   -16.0690    21.2040 h1         1 VP2       0.048700
     36 H8          44.5330   -14.3520    21.5530 h1         1 VP2       0.048700
     37 H9          44.6200   -14.9170    24.0230 hc         1 VP2       0.084200
     38 H10         43.2640   -15.6720    23.1180 hc         1 VP2       0.084200
     39 H11         46.0650   -15.2190    19.5470 ha         1 VP2       0.123000
     40 H12         50.3480   -13.0690    20.8930 ha         1 VP2       0.136000
     41 H13         47.3820   -11.5820    22.4670 ha         1 VP2       0.136000
     42 H14         45.5160   -10.8110    23.9810 ha         1 VP2       0.132000
     43 H15         49.8140   -13.4140    18.4910 ha         1 VP2       0.126000
     44 H16         47.6600   -14.4710    17.8310 ha         1 VP2       0.121000
     45 H17         45.6530   -13.9830    27.6790 h4         1 VP2       0.236000
@<TRIPOS>BOND
     1     1     4 2   
     2     2     3 1   
     3     2     8 1   
     4     2    29 1   
     5     2    30 1   
     6     3     4 1   
     7     3    31 1   
     8     4    11 1   
     9     5     9 1   
    10     5    19 2   
    11     5    32 1   
    12     6     7 2   
    13     6     9 1   
    14     6    17 1   
    15     7    22 1   
    16     7    33 1   
    17     8    25 1   
    18     8    26 1   
    19     8    34 1   
    20     9    24 1   
    21    10    11 1   
    22    10    27 1   
    23    10    35 1   
    24    10    36 1   
    25    11    37 1   
    26    11    38 1   
    27    12    13 ar  
    28    12    16 ar  
    29    12    27 1   
    30    13    21 ar  
    31    13    39 1   
    32    14    23 3   
    33    15    16 ar  
    34    15    20 ar  
    35    15    40 1   
    36    16    28 1   
    37    17    18 2   
    38    17    28 1   
    39    18    19 1   
    40    18    41 1   
    41    19    42 1   
    42    20    21 ar  
    43    20    43 1   
    44    21    44 1   
    45    22    23 1   
    46    22    24 2   
    47    24    45 1   
@<TRIPOS>SUBSTRUCTURE
     1 VP2         1 TEMP              0 ****  ****    0 ROOT
