@<TRIPOS>MOLECULE
VP2
   45    47     1     0     0
SMALL
abcg2


@<TRIPOS>ATOM
      1 O1          43.7340   -18.4180    23.2850 o          1 VP2      -0.592100
      2 C2          46.0080   -17.9200    24.8840 c3         1 VP2       0.051000
      3 N1          45.4620   -17.0640    23.8570 ns         1 VP2      -0.504900
      4 C1          44.3610   -17.3710    23.1360 c          1 VP2       0.601100
      5 C15         46.0850   -12.5480    26.1330 cc         1 VP2      -0.155000
      6 C16         47.6730   -14.2350    25.3810 cc         1 VP2      -0.144000
      7 C17         48.4450   -15.2260    25.9620 cd         1 VP2      -0.188000
      8 C3          45.5930   -17.4620    26.2670 c3         1 VP2       0.144300
      9 N2          46.9410   -13.6010    26.3980 na         1 VP2       0.162100
     10 C5          44.9400   -15.8650    21.1150 c3         1 VP2       0.169600
     11 C4          43.9140   -16.3090    22.1420 c3         1 VP2      -0.166400
     12 C6          46.9920   -14.6020    21.0690 ca         1 VP2       0.132100
     13 C7          46.9610   -14.4060    19.6900 ca         1 VP2      -0.182000
     14 N3          49.1870   -16.7230    29.1360 n1         1 VP2      -0.452000
     15 C10         49.1730   -13.5460    21.1460 ca         1 VP2      -0.071000
     16 C11         48.1190   -14.1720    21.7840 ca         1 VP2       0.052100
     17 C12         47.5010   -13.7720    24.0490 cc         1 VP2       0.178100
     18 C13         46.6670   -12.7280    23.7840 cd         1 VP2      -0.204000
     19 C14         45.9540   -12.1180    24.8560 cd         1 VP2      -0.090000
     20 C9          49.1310   -13.3440    19.7690 ca         1 VP2      -0.132000
     21 C8          48.0270   -13.7790    19.0490 ca         1 VP2      -0.068000
     22 C18         48.1660   -15.1830    27.3530 cd         1 VP2      -0.034700
     23 C19         48.7170   -16.0330    28.3370 ch         1 VP2       0.312700
     24 C20         47.2390   -14.1750    27.5970 cc         1 VP2      -0.189100
     25 F1          46.2160   -18.2450    27.2090 f          1 VP2      -0.121000
     26 F2          44.2410   -17.6320    26.4520 f          1 VP2      -0.121000
     27 O2          45.9970   -15.1720    21.7970 os         1 VP2      -0.370100
     28 O3          48.2390   -14.4640    23.1360 os         1 VP2      -0.235200
     29 H1          45.6610   -18.9420    24.7340 h1         1 VP2       0.082700
     30 H2          47.0970   -17.9010    24.8360 h1         1 VP2       0.082700
     31 H3          45.9620   -16.2220    23.6160 hn         1 VP2       0.337500
     32 H4          45.5670   -12.1300    26.9820 h4         1 VP2       0.150000
     33 H5          49.1140   -15.9000    25.4560 ha         1 VP2       0.225000
     34 H6          45.8270   -16.4200    26.4800 h2         1 VP2       0.061700
     35 H7          45.3640   -16.7130    20.5700 h1         1 VP2       0.048700
     36 H8          44.4560   -15.1940    20.4030 h1         1 VP2       0.048700
     37 H9          43.5770   -15.4340    22.7040 hc         1 VP2       0.084200
     38 H10         43.0550   -16.7130    21.6090 hc         1 VP2       0.084200
     39 H11         46.1130   -14.7390    19.1100 ha         1 VP2       0.123000
     40 H12         50.0240   -13.2330    21.7360 ha         1 VP2       0.136000
     41 H13         46.5320   -12.3710    22.7720 ha         1 VP2       0.136000
     42 H14         45.2880   -11.2930    24.6510 ha         1 VP2       0.132000
     43 H15         49.9580   -12.8560    19.2690 ha         1 VP2       0.126000
     44 H16         47.9850   -13.6360    17.9770 ha         1 VP2       0.121000
     45 H17         46.7870   -13.8390    28.5140 h4         1 VP2       0.236000
@<TRIPOS>BOND
     1     1     4 2   
     2     2     3 1   
     3     2     8 1   
     4     2    29 1   
     5     2    30 1   
     6     3     4 1   
     7     3    31 1   
     8     4    11 1   
     9     5     9 1   
    10     5    19 2   
    11     5    32 1   
    12     6     7 2   
    13     6     9 1   
    14     6    17 1   
    15     7    22 1   
    16     7    33 1   
    17     8    25 1   
    18     8    26 1   
    19     8    34 1   
    20     9    24 1   
    21    10    11 1   
    22    10    27 1   
    23    10    35 1   
    24    10    36 1   
    25    11    37 1   
    26    11    38 1   
    27    12    13 ar  
    28    12    16 ar  
    29    12    27 1   
    30    13    21 ar  
    31    13    39 1   
    32    14    23 3   
    33    15    16 ar  
    34    15    20 ar  
    35    15    40 1   
    36    16    28 1   
    37    17    18 2   
    38    17    28 1   
    39    18    19 1   
    40    18    41 1   
    41    19    42 1   
    42    20    21 ar  
    43    20    43 1   
    44    21    44 1   
    45    22    23 1   
    46    22    24 2   
    47    24    45 1   
@<TRIPOS>SUBSTRUCTURE
     1 VP2         1 TEMP              0 ****  ****    0 ROOT
