@<TRIPOS>MOLECULE
VP3
   22    22     1     0     0
SMALL
abcg2


@<TRIPOS>ATOM
      1 C7          27.7790    19.3810    41.7580 c3         1 VP3      -0.131400
      2 C8          28.2920    20.5880    42.5250 c3         1 VP3      -0.199400
      3 C9          28.7690    21.7590    41.6400 c          1 VP3       0.714000
      4 O1          29.5650    22.5750    42.1760 o          1 VP3      -0.741000
      5 C1          26.7600    16.2950    38.8480 ca         1 VP3      -0.170500
      6 C5          28.4420    17.6280    39.9740 ca         1 VP3      -0.160600
      7 C6          28.8520    18.6650    40.9690 c          1 VP3       0.585700
      8 C4          29.4330    16.9960    39.2150 ca         1 VP3      -0.044000
      9 C3          29.1080    16.0290    38.2790 ca         1 VP3      -0.170500
     10 C2          27.7720    15.7000    38.1170 ca         1 VP3       0.164000
     11 F           27.4450    14.7580    37.2030 f          1 VP3      -0.198000
     12 C           27.1050    17.2660    39.7790 ca         1 VP3      -0.044000
     13 O           30.0370    18.9080    41.1450 o          1 VP3      -0.513100
     14 O2          28.3090    21.8360    40.4720 o          1 VP3      -0.741000
     15 H1          26.9790    19.6780    41.0800 hc         1 VP3       0.040200
     16 H2          27.3400    18.6440    42.4410 hc         1 VP3       0.040200
     17 H3          27.4830    20.9720    43.1540 hc         1 VP3       0.029200
     18 H4          29.1040    20.3080    43.1970 hc         1 VP3       0.029200
     19 H7          30.4670    17.2740    39.3690 ha         1 VP3       0.131500
     20 H8          29.8640    15.5370    37.6820 ha         1 VP3       0.122500
     21 H9          26.3190    17.7350    40.3520 ha         1 VP3       0.131500
     22 H6          25.7310    16.0040    38.6890 ha         1 VP3       0.122500
@<TRIPOS>BOND
     1     1     2 1   
     2     1     7 1   
     3     1    15 1   
     4     1    16 1   
     5     2     3 1   
     6     2    17 1   
     7     2    18 1   
     8     3     4 1   
     9     3    14 1   
    10     5    10 ar  
    11     5    12 ar  
    12     5    22 1   
    13     6     7 1   
    14     6     8 ar  
    15     6    12 ar  
    16     7    13 2   
    17     8     9 ar  
    18     8    19 1   
    19     9    10 ar  
    20     9    20 1   
    21    10    11 1   
    22    12    21 1   
@<TRIPOS>SUBSTRUCTURE
     1 VP3         1 TEMP              0 ****  ****    0 ROOT
