@<TRIPOS>MOLECULE
VP3
   22    22     1     0     0
SMALL
No Charge or Current Charge


@<TRIPOS>ATOM
      1 C7          27.7720    19.2270    42.3180 c3         1 VP3      -0.131400
      2 C8          28.3410    20.6690    42.1910 c3         1 VP3      -0.199400
      3 C9          28.4140    21.1020    40.7150 c          1 VP3       0.714000
      4 O1          29.4400    20.8650    40.0980 o          1 VP3      -0.741000
      5 C1          26.8830    16.7100    38.6760 ca         1 VP3      -0.170500
      6 C5          28.4350    17.5310    40.3820 ca         1 VP3      -0.160600
      7 C6          28.7290    18.1650    41.7260 c          1 VP3       0.585700
      8 C4          29.5140    17.1240    39.5650 ca         1 VP3      -0.044000
      9 C3          29.2790    16.5260    38.3150 ca         1 VP3      -0.170500
     10 C2          27.9650    16.3240    37.8730 ca         1 VP3       0.164000
     11 F           27.7400    15.7480    36.6730 f          1 VP3      -0.198000
     12 C           27.1120    17.3090    39.9280 ca         1 VP3      -0.044000
     13 O           29.7240    17.8260    42.3580 o          1 VP3      -0.513100
     14 O2          27.4250    21.6140    40.2150 o          1 VP3      -0.741000
     15 H1          26.8010    19.2170    41.8160 hc         1 VP3       0.040200
     16 H2          27.6330    19.0120    43.3850 hc         1 VP3       0.040200
     17 H3          27.6340    21.3080    42.7340 hc         1 VP3       0.029200
     18 H4          29.3420    20.6470    42.6390 hc         1 VP3       0.029200
     19 H7          30.5400    17.2780    39.8960 ha         1 VP3       0.131500
     20 H8          30.1140    16.2210    37.6900 ha         1 VP3       0.122500
     21 H9          26.2530    17.5730    40.5390 ha         1 VP3       0.131500
     22 H6          25.8660    16.5390    38.3320 ha         1 VP3       0.122500
@<TRIPOS>BOND
     1     1     2 1   
     2     1     7 1   
     3     1    15 1   
     4     1    16 1   
     5     2     3 1   
     6     2    17 1   
     7     2    18 1   
     8     3     4 1   
     9     3    14 1   
    10     5    10 ar  
    11     5    12 ar  
    12     5    22 1   
    13     6     7 1   
    14     6     8 ar  
    15     6    12 ar  
    16     7    13 2   
    17     8     9 ar  
    18     8    19 1   
    19     9    10 ar  
    20     9    20 1   
    21    10    11 1   
    22    12    21 1   
@<TRIPOS>SUBSTRUCTURE
     1 VP3         1 TEMP              0 ****  ****    0 ROOT
