@<TRIPOS>MOLECULE
VP5
   22    22     1     0     0
SMALL
No Charge or Current Charge


@<TRIPOS>ATOM
      1 C4          10.0730   -10.2860   -22.3990 c6         1 VP5       0.180800
      2 C5          10.5340   -10.7830   -20.9750 c6         1 VP5       0.381000
      3 C6          10.0620    -9.7550   -19.8800 c6         1 VP5       0.135300
      4 N1           8.6210    -9.9260   -22.4710 n7         1 VP5      -0.865400
      5 C3           8.2290    -8.9270   -21.4500 c6         1 VP5       0.175800
      6 C1           8.0750    -8.3800   -18.9980 c          1 VP5       0.715000
      7 O2           7.1810    -8.6960   -18.2290 o          1 VP5      -0.722000
      8 C2           8.5490    -9.4220   -20.0200 c6         1 VP5      -0.220700
      9 O3           9.9940   -12.0560   -20.6580 oh         1 VP5      -0.686500
     10 O4          11.9420   -10.9220   -20.9040 oh         1 VP5      -0.686500
     11 O5          10.3530   -10.2770   -18.5640 oh         1 VP5      -0.758000
     12 H1          10.2900   -11.0640   -23.1450 h1         1 VP5       0.033700
     13 H2          10.6680    -9.4010   -22.6720 h1         1 VP5       0.033700
     14 H3          10.6270    -8.8240   -20.0380 h1         1 VP5       0.035700
     15 H4           8.4190    -9.5480   -23.4050 hn         1 VP5       0.392000
     16 H6           8.7590    -7.9810   -21.6440 h1         1 VP5       0.037200
     17 H7           7.1510    -8.7240   -21.5370 h1         1 VP5       0.037200
     18 H9           7.9610   -10.3330   -19.8460 hc         1 VP5       0.064700
     19 H10          9.8310   -11.9630   -19.6930 ho         1 VP5       0.456000
     20 H11         12.1340   -10.7940   -19.9490 ho         1 VP5       0.456000
     21 H12         10.2230    -9.5360   -17.9250 ho         1 VP5       0.526000
     22 O1           8.6340    -7.2940   -18.9770 o          1 VP5      -0.722000
@<TRIPOS>BOND
     1     1     2 1   
     2     1     4 1   
     3     1    12 1   
     4     1    13 1   
     5     2     3 1   
     6     2     9 1   
     7     2    10 1   
     8     3     8 1   
     9     3    11 1   
    10     3    14 1   
    11     4     5 1   
    12     4    15 1   
    13     5     8 1   
    14     5    16 1   
    15     5    17 1   
    16     6     7 1   
    17     6     8 1   
    18     6    22 1   
    19     8    18 1   
    20     9    19 1   
    21    10    20 1   
    22    11    21 1   
@<TRIPOS>SUBSTRUCTURE
     1 VP5         1 TEMP              0 ****  ****    0 ROOT
