@<TRIPOS>MOLECULE
VP5
   22    22     1     0     0
SMALL
abcg2


@<TRIPOS>ATOM
      1 C4          10.1210   -10.2650   -22.3360 c6         1 VP5       0.180800
      2 C5          10.4570   -10.7650   -20.9370 c6         1 VP5       0.381000
      3 C6          10.0290    -9.7430   -19.8780 c6         1 VP5       0.135300
      4 N1           8.7100    -9.9070   -22.4290 n7         1 VP5      -0.865400
      5 C3           8.3560    -8.8330   -21.4970 c6         1 VP5       0.175800
      6 C1           8.1430    -8.2990   -18.9850 c          1 VP5       0.715000
      7 O2           8.5250    -8.5640   -17.7990 o          1 VP5      -0.722000
      8 C2           8.5680    -9.3140   -20.0660 c6         1 VP5      -0.220700
      9 O3           9.8030   -11.9940   -20.7050 oh         1 VP5      -0.686500
     10 O4          11.8680   -10.9430   -20.9020 oh         1 VP5      -0.686500
     11 O5          10.2470   -10.3360   -18.6020 oh         1 VP5      -0.758000
     12 H1          10.3490   -11.0550   -23.0530 h1         1 VP5       0.033700
     13 H2          10.7870    -9.4140   -22.5420 h1         1 VP5       0.033700
     14 H3          10.6740    -8.8630   -20.0010 h1         1 VP5       0.035700
     15 H4           8.5020    -9.6200   -23.3770 hn         1 VP5       0.392000
     16 H6           8.9560    -7.9240   -21.6660 h1         1 VP5       0.037200
     17 H7           7.3110    -8.5670   -21.6480 h1         1 VP5       0.037200
     18 H9           7.9480   -10.2050   -19.9110 hc         1 VP5       0.064700
     19 H10          9.7240   -12.0820   -19.7410 ho         1 VP5       0.456000
     20 H11         12.1200   -11.0940   -19.9800 ho         1 VP5       0.456000
     21 H12          9.6620    -9.7900   -18.0100 ho         1 VP5       0.526000
     22 O1           7.4500    -7.3160   -19.3140 o          1 VP5      -0.722000
@<TRIPOS>BOND
     1     1     2 1   
     2     1     4 1   
     3     1    12 1   
     4     1    13 1   
     5     2     3 1   
     6     2     9 1   
     7     2    10 1   
     8     3     8 1   
     9     3    11 1   
    10     3    14 1   
    11     4     5 1   
    12     4    15 1   
    13     5     8 1   
    14     5    16 1   
    15     5    17 1   
    16     6     7 1   
    17     6     8 1   
    18     6    22 1   
    19     8    18 1   
    20     9    19 1   
    21    10    20 1   
    22    11    21 1   
@<TRIPOS>SUBSTRUCTURE
     1 VP5         1 TEMP              0 ****  ****    0 ROOT
