@<TRIPOS>MOLECULE
VP6
   51    54     1     0     0
SMALL
No Charge or Current Charge


@<TRIPOS>ATOM
      1 CAN         16.5170     5.9040   -15.8260 c3         1 VP6       0.104000
      2 CAO         17.5240     4.7390   -15.6730 c3         1 VP6      -0.098400
      3 CAP         17.7730     3.9200   -16.9620 c3         1 VP6      -0.015100
      4 CAQ         18.6770     4.6320   -17.9690 ca         1 VP6      -0.153300
      5 CAW         19.9080     4.0410   -18.3390 ca         1 VP6       0.366900
      6 NAV         20.7750     4.5950   -19.2180 nb         1 VP6      -0.720000
      7 CAU         20.4250     5.7650   -19.7450 ca         1 VP6       0.563900
      8 NAX         21.3770     6.1920   -20.5990 nv         1 VP6      -1.039900
      9 CAT         19.2190     6.4520   -19.4600 ca         1 VP6       0.072000
     10 FAY         18.9430     7.6410   -20.0540 f          1 VP6      -0.174000
     11 CAR         18.3140     5.8720   -18.5480 ca         1 VP6      -0.066300
     12 CAS         16.9990     6.5580   -18.1910 c3         1 VP6       0.146300
     13 NAM         16.9490     6.9680   -16.7670 n          1 VP6      -0.394800
     14 CAK         16.8760     8.3470   -16.4310 c          1 VP6       0.630300
     15 OAL         16.5680     9.1820   -17.2730 o          1 VP6      -0.617100
     16 CAB         17.1960     8.7800   -15.0310 cc         1 VP6      -0.130300
     17 CAA         17.8560     8.0700   -14.0250 cd         1 VP6      -0.194200
     18 CAE         18.0220     8.8830   -12.8500 ca         1 VP6      -0.111800
     19 CAF         18.6030     8.6180   -11.6080 ca         1 VP6      -0.062000
     20 CAG         18.6100     9.6620   -10.6580 ca         1 VP6      -0.116000
     21 CAH         18.0460    10.9390   -10.9510 ca         1 VP6      -0.040300
     22 CAJ         18.0970    12.0490    -9.8740 c3         1 VP6       0.222300
     23 CBA         19.5590    12.5020    -9.6560 c3         1 VP6      -0.115600
     24 CBB         17.2080    13.2770   -10.1940 c3         1 VP6      -0.115600
     25 OAZ         17.6230    11.5170    -8.6340 oh         1 VP6      -0.662000
     26 CAI         17.4750    11.1510   -12.2380 ca         1 VP6      -0.120000
     27 CAD         17.4830    10.0940   -13.1570 ca         1 VP6      -0.034200
     28 NAC         17.0020    10.0600   -14.4560 na         1 VP6      -0.197700
     29 H1          16.2780     6.3210   -14.8420 h1         1 VP6       0.057200
     30 H2          15.5720     5.4880   -16.2000 h1         1 VP6       0.057200
     31 H3          17.1330     4.0590   -14.9060 hc         1 VP6       0.054700
     32 H4          18.4820     5.1140   -15.2960 hc         1 VP6       0.054700
     33 H5          16.8120     3.6640   -17.4250 hc         1 VP6       0.047200
     34 H6          18.2240     2.9630   -16.6710 hc         1 VP6       0.047200
     35 H7          20.2130     3.0860   -17.9130 h4         1 VP6       0.020100
     36 H8          22.0510     5.4920   -20.8860 hn         1 VP6       0.476000
     37 H9          21.1190     6.8930   -21.2860 hn         1 VP6       0.476000
     38 H10         16.8380     7.4180   -18.8520 h1         1 VP6       0.076700
     39 H11         16.1720     5.8650   -18.3950 h1         1 VP6       0.076700
     40 H12         18.2590     7.0680   -14.1220 ha         1 VP6       0.203000
     41 H13         19.0340     7.6460   -11.3810 ha         1 VP6       0.115000
     42 H14         19.0550     9.4790    -9.6830 ha         1 VP6       0.123000
     43 H15         19.6220    13.2870    -8.8920 hc         1 VP6       0.043867
     44 H16         20.1900    11.6660    -9.3340 hc         1 VP6       0.043867
     45 H17         19.9780    12.9020   -10.5870 hc         1 VP6       0.043867
     46 H18         17.2130    13.9930    -9.3630 hc         1 VP6       0.043867
     47 H19         17.5730    13.8050   -11.0830 hc         1 VP6       0.043867
     48 H20         16.1690    12.9730   -10.3700 hc         1 VP6       0.043867
     49 H21         17.6810    12.2410    -7.9750 ho         1 VP6       0.438000
     50 H22         17.0410    12.1030   -12.5290 ha         1 VP6       0.117000
     51 H23         16.5780    10.8480   -14.9360 hn         1 VP6       0.370000
@<TRIPOS>BOND
     1     1     2 1   
     2     1    13 1   
     3     1    29 1   
     4     1    30 1   
     5     2     3 1   
     6     2    31 1   
     7     2    32 1   
     8     3     4 1   
     9     3    33 1   
    10     3    34 1   
    11     4     5 ar  
    12     4    11 ar  
    13     5     6 ar  
    14     5    35 1   
    15     6     7 ar  
    16     7     8 1   
    17     7     9 ar  
    18     8    36 1   
    19     8    37 1   
    20     9    10 1   
    21     9    11 ar  
    22    11    12 1   
    23    12    13 1   
    24    12    38 1   
    25    12    39 1   
    26    13    14 1   
    27    14    15 2   
    28    14    16 1   
    29    16    17 2   
    30    16    28 1   
    31    17    18 1   
    32    17    40 1   
    33    18    19 ar  
    34    18    27 ar  
    35    19    20 ar  
    36    19    41 1   
    37    20    21 ar  
    38    20    42 1   
    39    21    22 1   
    40    21    26 ar  
    41    22    23 1   
    42    22    24 1   
    43    22    25 1   
    44    23    43 1   
    45    23    44 1   
    46    23    45 1   
    47    24    46 1   
    48    24    47 1   
    49    24    48 1   
    50    25    49 1   
    51    26    27 ar  
    52    26    50 1   
    53    27    28 1   
    54    28    51 1   
@<TRIPOS>SUBSTRUCTURE
     1 VP6         1 TEMP              0 ****  ****    0 ROOT
