@<TRIPOS>MOLECULE
VP6
   51    54     1     0     0
SMALL
abcg2


@<TRIPOS>ATOM
      1 CAN         16.4510     5.6800   -15.7840 c3         1 VP6       0.104000
      2 CAO         17.5610     4.6420   -15.6310 c3         1 VP6      -0.098400
      3 CAP         17.9670     3.9600   -16.9470 c3         1 VP6      -0.015100
      4 CAQ         18.7530     4.8110   -17.9130 ca         1 VP6      -0.153300
      5 CAW         20.0240     4.4320   -18.3110 ca         1 VP6       0.366900
      6 NAV         20.7870     5.1010   -19.1880 nb         1 VP6      -0.720000
      7 CAU         20.3030     6.2130   -19.7340 ca         1 VP6       0.563900
      8 NAX         21.0930     6.9360   -20.5920 nv         1 VP6      -1.039900
      9 CAT         19.0200     6.6630   -19.3810 ca         1 VP6       0.072000
     10 FAY         18.5770     7.8020   -19.9790 f          1 VP6      -0.174000
     11 CAR         18.2310     5.9940   -18.4780 ca         1 VP6      -0.066300
     12 CAS         16.8740     6.5180   -18.0780 c3         1 VP6       0.146300
     13 NAM         16.8200     6.8020   -16.6430 n          1 VP6      -0.394800
     14 CAK         17.2200     8.0290   -16.2290 c          1 VP6       0.630300
     15 OAL         17.4740     8.9320   -17.0410 o          1 VP6      -0.617100
     16 CAB         17.3570     8.3440   -14.7880 cc         1 VP6      -0.130300
     17 CAA         17.6080     7.6240   -13.6350 cd         1 VP6      -0.194200
     18 CAE         17.7670     8.5650   -12.5740 ca         1 VP6      -0.111800
     19 CAF         18.0310     8.4640   -11.1980 ca         1 VP6      -0.062000
     20 CAG         18.1210     9.6190   -10.4490 ca         1 VP6      -0.116000
     21 CAH         17.9520    10.9050   -11.0210 ca         1 VP6      -0.040300
     22 CAJ         18.1340    12.1280   -10.1300 c3         1 VP6       0.222300
     23 CBA         19.6250    12.3160    -9.8140 c3         1 VP6      -0.115600
     24 CBB         17.5630    13.4110   -10.7330 c3         1 VP6      -0.115600
     25 OAZ         17.4210    11.8370    -8.9050 oh         1 VP6      -0.662000
     26 CAI         17.6890    11.0240   -12.3750 ca         1 VP6      -0.120000
     27 CAD         17.6020     9.8560   -13.1370 ca         1 VP6      -0.034200
     28 NAC         17.3590     9.6900   -14.4710 na         1 VP6      -0.197700
     29 H1          16.1400     6.0640   -14.8180 h1         1 VP6       0.057200
     30 H2          15.5750     5.2090   -16.2370 h1         1 VP6       0.057200
     31 H3          17.1980     3.8750   -14.9420 hc         1 VP6       0.054700
     32 H4          18.4390     5.1010   -15.1710 hc         1 VP6       0.054700
     33 H5          17.0600     3.5910   -17.4400 hc         1 VP6       0.047200
     34 H6          18.5670     3.0800   -16.7110 hc         1 VP6       0.047200
     35 H7          20.4620     3.5260   -17.9030 h4         1 VP6       0.020100
     36 H8          21.8640     6.4250   -20.9950 hn         1 VP6       0.476000
     37 H9          20.6230     7.5570   -21.2330 hn         1 VP6       0.476000
     38 H10         16.6330     7.4210   -18.6260 h1         1 VP6       0.076700
     39 H11         16.1120     5.7680   -18.2920 h1         1 VP6       0.076700
     40 H12         17.7090     6.5570   -13.5460 ha         1 VP6       0.203000
     41 H13         18.1630     7.4950   -10.7320 ha         1 VP6       0.115000
     42 H14         18.3210     9.5490    -9.3890 ha         1 VP6       0.123000
     43 H15         19.7620    13.1710    -9.1470 hc         1 VP6       0.043867
     44 H16         20.0250    11.4250    -9.3300 hc         1 VP6       0.043867
     45 H17         20.1890    12.4980   -10.7290 hc         1 VP6       0.043867
     46 H18         17.6590    14.2190   -10.0040 hc         1 VP6       0.043867
     47 H19         18.1040    13.7090   -11.6310 hc         1 VP6       0.043867
     48 H20         16.5080    13.2870   -10.9800 hc         1 VP6       0.043867
     49 H21         17.5980    12.5580    -8.2870 ho         1 VP6       0.438000
     50 H22         17.5590    11.9860   -12.8490 ha         1 VP6       0.117000
     51 H23         17.2580    10.4150   -15.1620 hn         1 VP6       0.370000
@<TRIPOS>BOND
     1     1     2 1   
     2     1    13 1   
     3     1    29 1   
     4     1    30 1   
     5     2     3 1   
     6     2    31 1   
     7     2    32 1   
     8     3     4 1   
     9     3    33 1   
    10     3    34 1   
    11     4     5 ar  
    12     4    11 ar  
    13     5     6 ar  
    14     5    35 1   
    15     6     7 ar  
    16     7     8 1   
    17     7     9 ar  
    18     8    36 1   
    19     8    37 1   
    20     9    10 1   
    21     9    11 ar  
    22    11    12 1   
    23    12    13 1   
    24    12    38 1   
    25    12    39 1   
    26    13    14 1   
    27    14    15 2   
    28    14    16 1   
    29    16    17 2   
    30    16    28 1   
    31    17    18 1   
    32    17    40 1   
    33    18    19 ar  
    34    18    27 ar  
    35    19    20 ar  
    36    19    41 1   
    37    20    21 ar  
    38    20    42 1   
    39    21    22 1   
    40    21    26 ar  
    41    22    23 1   
    42    22    24 1   
    43    22    25 1   
    44    23    43 1   
    45    23    44 1   
    46    23    45 1   
    47    24    46 1   
    48    24    47 1   
    49    24    48 1   
    50    25    49 1   
    51    26    27 ar  
    52    26    50 1   
    53    27    28 1   
    54    28    51 1   
@<TRIPOS>SUBSTRUCTURE
     1 VP6         1 TEMP              0 ****  ****    0 ROOT
