@<TRIPOS>MOLECULE
VP7
   45    48     1     0     0
SMALL
abcg2


@<TRIPOS>ATOM
      1 N1         174.6710    19.2930    47.3690 nb         1 VP7      -0.242000
      2 N3         176.8320    19.6200    46.4620 nb         1 VP7      -0.261000
      3 C4         175.6480    19.0160    46.5060 ca         1 VP7       0.368900
      4 C5         177.0960    20.5820    47.3470 ca         1 VP7       0.279800
      5 C6         178.4210    21.1780    47.2430 cc         1 VP7      -0.218000
      6 C7         179.5370    20.5950    46.5280 ca         1 VP7      -0.062800
      7 C8         179.7400    19.4220    45.7990 ca         1 VP7      -0.017000
      8 C13        180.9970    15.8330    41.7250 c3         1 VP7      -0.097600
      9 C15        182.0560    20.0780    45.4200 ca         1 VP7      -0.068000
     10 C17        180.6230    21.4780    46.6830 ca         1 VP7      -0.050200
     11 C20        176.7520    23.3500    48.7870 c3         1 VP7      -0.065400
     12 C1         176.3410    21.9950    49.3590 c3         1 VP7      -0.006100
     13 C11        181.4040    16.9630    43.8660 c1         1 VP7      -0.177100
     14 C12        181.6450    15.7230    43.1030 c3         1 VP7       0.278100
     15 C14        181.0620    14.5350    43.8720 c3         1 VP7      -0.097600
     16 C16        181.8810    21.2400    46.1390 ca         1 VP7      -0.134000
     17 C18        178.8810    22.3740    47.7720 cd         1 VP7      -0.012300
     18 C19        178.2500    23.4600    48.5770 c3         1 VP7      -0.027200
     19 C2         176.1410    20.9430    48.3130 ca         1 VP7      -0.245300
     20 C3         174.9460    20.2480    48.2450 ca         1 VP7       0.145900
     21 C9         180.9940    19.1650    45.2500 ca         1 VP7      -0.013000
     22 N2         175.4030    18.0670    45.5670 nv         1 VP7      -1.050900
     23 N4         180.1860    22.5320    47.4290 na         1 VP7      -0.218700
     24 O1         183.0320    15.5530    42.8840 oh         1 VP7      -0.651000
     25 H1         178.9350    18.7190    45.6510 ha         1 VP7       0.140000
     26 H2         179.9230    15.9830    41.8220 hc         1 VP7       0.046533
     27 H3         181.4100    16.6710    41.1630 hc         1 VP7       0.046533
     28 H4         181.1640    14.9170    41.1570 hc         1 VP7       0.046533
     29 H5         183.0190    19.8580    44.9790 ha         1 VP7       0.120000
     30 H6         176.4560    24.1440    49.4750 hc         1 VP7       0.050700
     31 H7         176.2190    23.5370    47.8520 hc         1 VP7       0.050700
     32 H8         175.4060    22.1000    49.9140 hc         1 VP7       0.046700
     33 H9         177.0900    21.6720    50.0910 hc         1 VP7       0.046700
     34 H10        181.5300    14.4350    44.8530 hc         1 VP7       0.046533
     35 H11        179.9900    14.6530    44.0220 hc         1 VP7       0.046533
     36 H12        181.2310    13.6130    43.3130 hc         1 VP7       0.046533
     37 H13        182.6950    21.9410    46.2760 ha         1 VP7       0.116000
     38 H14        178.7470    23.4870    49.5520 hc         1 VP7       0.050700
     39 H15        178.4840    24.4180    48.1020 hc         1 VP7       0.050700
     40 H16        174.1590    20.4800    48.9590 h4         1 VP7       0.015100
     41 H17        176.1940    17.6770    45.0840 hn         1 VP7       0.484500
     42 H18        174.6390    17.4350    45.7360 hn         1 VP7       0.484500
     43 H19        180.7440    23.3340    47.6790 hn         1 VP7       0.349000
     44 H20        183.4610    15.4070    43.7350 ho         1 VP7       0.446000
     45 C10        181.2100    17.9700    44.5010 cg         1 VP7      -0.089000
@<TRIPOS>BOND
     1     1     3 ar  
     2     1    20 ar  
     3     2     3 ar  
     4     2     4 ar  
     5     3    22 1   
     6     4     5 1   
     7     4    19 ar  
     8     5     6 1   
     9     5    17 2   
    10     6     7 ar  
    11     6    10 ar  
    12     7    21 ar  
    13     7    25 1   
    14     8    14 1   
    15     8    26 1   
    16     8    27 1   
    17     8    28 1   
    18     9    16 ar  
    19     9    21 ar  
    20     9    29 1   
    21    10    16 ar  
    22    10    23 1   
    23    11    12 1   
    24    11    18 1   
    25    11    30 1   
    26    11    31 1   
    27    12    19 1   
    28    12    32 1   
    29    12    33 1   
    30    13    14 1   
    31    13    45 3   
    32    14    15 1   
    33    14    24 1   
    34    15    34 1   
    35    15    35 1   
    36    15    36 1   
    37    16    37 1   
    38    17    18 1   
    39    17    23 1   
    40    18    38 1   
    41    18    39 1   
    42    19    20 ar  
    43    20    40 1   
    44    21    45 1   
    45    22    41 1   
    46    22    42 1   
    47    23    43 1   
    48    24    44 1   
@<TRIPOS>SUBSTRUCTURE
     1 VP7         1 TEMP              0 ****  ****    0 ROOT
