@<TRIPOS>MOLECULE
VP7
   45    48     1     0     0
SMALL
No Charge or Current Charge


@<TRIPOS>ATOM
      1 N1         174.6700    19.2780    47.5020 nb         1 VP7      -0.242000
      2 N3         176.7400    19.7220    46.3730 nb         1 VP7      -0.261000
      3 C4         175.5440    19.1370    46.5000 ca         1 VP7       0.368900
      4 C5         177.1300    20.5620    47.3570 ca         1 VP7       0.279800
      5 C6         178.4740    21.1570    47.2220 cc         1 VP7      -0.218000
      6 C7         179.5880    20.6400    46.4640 ca         1 VP7      -0.062800
      7 C8         179.7940    19.4020    45.8290 ca         1 VP7      -0.017000
      8 C13        181.6950    15.7930    41.7350 c3         1 VP7      -0.097600
      9 C15        182.0210    20.1890    45.1780 ca         1 VP7      -0.068000
     10 C17        180.5590    21.6010    46.4780 ca         1 VP7      -0.050200
     11 C20        176.7290    23.1790    49.0110 c3         1 VP7      -0.065400
     12 C1         176.6190    21.7580    49.5790 c3         1 VP7      -0.006100
     13 C11        181.4680    16.8760    43.9500 c1         1 VP7      -0.177100
     14 C12        181.6580    15.5910    43.2650 c3         1 VP7       0.278100
     15 C14        180.5520    14.5930    43.6730 c3         1 VP7      -0.097600
     16 C16        181.7920    21.4130    45.8400 ca         1 VP7      -0.134000
     17 C18        178.8350    22.4440    47.6480 cd         1 VP7      -0.012300
     18 C19        178.1220    23.5130    48.4520 c3         1 VP7      -0.027200
     19 C2         176.2790    20.7870    48.4670 ca         1 VP7      -0.245300
     20 C3         175.0430    20.1100    48.4890 ca         1 VP7       0.145900
     21 C9         181.0260    19.1820    45.1750 ca         1 VP7      -0.013000
     22 N2         175.1780    18.2990    45.4980 nv         1 VP7      -1.050900
     23 N4         180.1480    22.7090    47.1920 na         1 VP7      -0.218700
     24 O1         182.9120    15.0540    43.6710 oh         1 VP7      -0.651000
     25 H1         179.0360    18.6240    45.8440 ha         1 VP7       0.140000
     26 H2         180.7460    16.2090    41.3730 hc         1 VP7       0.046533
     27 H3         182.5000    16.4800    41.4480 hc         1 VP7       0.046533
     28 H4         181.8640    14.8390    41.2210 hc         1 VP7       0.046533
     29 H5         182.9710    20.0190    44.6760 ha         1 VP7       0.120000
     30 H6         176.4910    23.9020    49.8010 hc         1 VP7       0.050700
     31 H7         175.9730    23.3200    48.2270 hc         1 VP7       0.050700
     32 H8         175.8350    21.7470    50.3470 hc         1 VP7       0.046700
     33 H9         177.5500    21.4730    50.0860 hc         1 VP7       0.046700
     34 H10        180.5430    14.4330    44.7590 hc         1 VP7       0.046533
     35 H11        179.5630    14.9660    43.3770 hc         1 VP7       0.046533
     36 H12        180.7060    13.6220    43.1890 hc         1 VP7       0.046533
     37 H13        182.5560    22.1870    45.8570 ha         1 VP7       0.116000
     38 H14        178.7600    23.7790    49.3040 hc         1 VP7       0.050700
     39 H15        178.0390    24.4280    47.8520 hc         1 VP7       0.050700
     40 H16        174.3330    20.2440    49.3040 h4         1 VP7       0.015100
     41 H17        175.8790    18.0080    44.8210 hn         1 VP7       0.484500
     42 H18        174.3830    17.6790    45.6390 hn         1 VP7       0.484500
     43 H19        180.6790    23.5580    47.3510 hn         1 VP7       0.349000
     44 H20        182.9900    15.2550    44.6270 ho         1 VP7       0.446000
     45 C10        181.2710    17.9350    44.5120 cg         1 VP7      -0.089000
@<TRIPOS>BOND
     1     1     3 ar  
     2     1    20 ar  
     3     2     3 ar  
     4     2     4 ar  
     5     3    22 1   
     6     4     5 1   
     7     4    19 ar  
     8     5     6 1   
     9     5    17 2   
    10     6     7 ar  
    11     6    10 ar  
    12     7    21 ar  
    13     7    25 1   
    14     8    14 1   
    15     8    26 1   
    16     8    27 1   
    17     8    28 1   
    18     9    16 ar  
    19     9    21 ar  
    20     9    29 1   
    21    10    16 ar  
    22    10    23 1   
    23    11    12 1   
    24    11    18 1   
    25    11    30 1   
    26    11    31 1   
    27    12    19 1   
    28    12    32 1   
    29    12    33 1   
    30    13    14 1   
    31    13    45 3   
    32    14    15 1   
    33    14    24 1   
    34    15    34 1   
    35    15    35 1   
    36    15    36 1   
    37    16    37 1   
    38    17    18 1   
    39    17    23 1   
    40    18    38 1   
    41    18    39 1   
    42    19    20 ar  
    43    20    40 1   
    44    21    45 1   
    45    22    41 1   
    46    22    42 1   
    47    23    43 1   
    48    24    44 1   
@<TRIPOS>SUBSTRUCTURE
     1 VP7         1 TEMP              0 ****  ****    0 ROOT
