@<TRIPOS>MOLECULE
VP9
   35    37     1     0     0
SMALL
abcg2


@<TRIPOS>ATOM
      1 C1           8.5700    58.8670    -3.5730 ca         1 VP9       0.159100
      2 C2           8.6650    59.7440    -2.4690 ca         1 VP9      -0.130000
      3 C3           9.0820    59.3080    -1.2280 ca         1 VP9      -0.129000
      4 C4           9.4390    57.9600    -0.9820 ca         1 VP9       0.352000
      5 C5           9.3360    57.1080    -2.0770 ca         1 VP9      -0.210600
      6 C6           8.9130    57.5440    -3.3440 ca         1 VP9      -0.137600
      7 O2          10.2260    49.9030    -3.5360 o          1 VP9      -0.517000
      8 O3           7.5170    53.3960    -2.6560 o          1 VP9      -0.506000
      9 N1           8.9250    51.6940    -3.1140 ns         1 VP9      -0.478500
     10 C7           8.9180    56.3760    -4.2500 c          1 VP9       0.604600
     11 C8           9.4700    53.9440    -3.9650 c6         1 VP9       0.045700
     12 C9          10.9100    53.4390    -4.0150 c6         1 VP9      -0.084400
     13 C10         10.9350    51.9930    -4.4950 c6         1 VP9      -0.158400
     14 C11         10.0390    51.0950    -3.6860 c          1 VP9       0.577000
     15 C12          8.5460    53.0180    -3.1760 c          1 VP9       0.570000
     16 C13          9.6110    55.6730    -2.1500 c          1 VP9       0.603600
     17 N2           9.9020    57.5490     0.2390 nv         1 VP9      -1.087000
     18 N            9.3560    55.2930    -3.4710 n          1 VP9      -0.391400
     19 O1           8.6220    56.2870    -5.4240 o          1 VP9      -0.481000
     20 O            8.1660    59.2380    -4.8060 os         1 VP9      -0.323100
     21 C            7.8680    60.6180    -5.0430 c3         1 VP9       0.147900
     22 H1           8.4060    60.7860    -2.5850 ha         1 VP9       0.124000
     23 H2           9.1390    60.0180    -0.4120 ha         1 VP9       0.121000
     24 H3           8.3000    51.0790    -2.6050 hn         1 VP9       0.331500
     25 H4           9.0650    53.9620    -4.9820 h1         1 VP9       0.101700
     26 H5          11.3600    53.5150    -3.0250 hc         1 VP9       0.072700
     27 H6          11.4830    54.0700    -4.6940 hc         1 VP9       0.072700
     28 H7          10.5820    51.9310    -5.5310 hc         1 VP9       0.082200
     29 H8          11.9380    51.5730    -4.4690 hc         1 VP9       0.082200
     30 H9           9.6860    58.1250     1.0370 hn         1 VP9       0.483500
     31 H10          9.9180    56.5550     0.4110 hn         1 VP9       0.483500
     32 H11          7.6020    60.6820    -6.0950 h1         1 VP9       0.046700
     33 H12          7.0270    60.9470    -4.4300 h1         1 VP9       0.046700
     34 H13          8.7400    61.2440    -4.8440 h1         1 VP9       0.046700
     35 O4           9.9850    54.9110    -1.2740 o          1 VP9      -0.521000
@<TRIPOS>BOND
     1     1     2 ar  
     2     1     6 ar  
     3     1    20 1   
     4     2     3 ar  
     5     2    22 1   
     6     3     4 ar  
     7     3    23 1   
     8     4     5 ar  
     9     4    17 1   
    10     5     6 ar  
    11     5    16 1   
    12     6    10 1   
    13     7    14 2   
    14     8    15 2   
    15     9    14 1   
    16     9    15 1   
    17     9    24 1   
    18    10    18 1   
    19    10    19 2   
    20    11    12 1   
    21    11    15 1   
    22    11    18 1   
    23    11    25 1   
    24    12    13 1   
    25    12    26 1   
    26    12    27 1   
    27    13    14 1   
    28    13    28 1   
    29    13    29 1   
    30    16    18 1   
    31    16    35 2   
    32    17    30 1   
    33    17    31 1   
    34    20    21 1   
    35    21    32 1   
    36    21    33 1   
    37    21    34 1   
@<TRIPOS>SUBSTRUCTURE
     1 VP9         1 TEMP              0 ****  ****    0 ROOT
