@<TRIPOS>MOLECULE
VP9
   35    37     1     0     0
SMALL
No Charge or Current Charge


@<TRIPOS>ATOM
      1 C1           8.6540    58.9030    -3.5430 ca         1 VP9       0.159100
      2 C2           8.7280    59.8120    -2.4570 ca         1 VP9      -0.130000
      3 C3           9.0600    59.3540    -1.1570 ca         1 VP9      -0.129000
      4 C4           9.3230    57.9920    -0.9130 ca         1 VP9       0.352000
      5 C5           9.2430    57.1110    -1.9930 ca         1 VP9      -0.210600
      6 C6           8.9180    57.5530    -3.2740 ca         1 VP9      -0.137600
      7 O2          10.5860    49.9140    -3.5050 o          1 VP9      -0.517000
      8 O3           7.5610    53.0520    -2.4220 o          1 VP9      -0.506000
      9 N1           9.1400    51.5570    -2.9820 ns         1 VP9      -0.478500
     10 C7           8.9170    56.3750    -4.1880 c          1 VP9       0.604600
     11 C8           9.3240    53.8820    -3.8900 c6         1 VP9       0.045700
     12 C9          10.7820    53.4980    -4.2530 c6         1 VP9      -0.084400
     13 C10         10.8930    52.0100    -4.6620 c6         1 VP9      -0.158400
     14 C11         10.1960    51.0550    -3.6860 c          1 VP9       0.577000
     15 C12          8.5990    52.8140    -3.0190 c          1 VP9       0.570000
     16 C13          9.4570    55.6420    -2.0480 c          1 VP9       0.603600
     17 N2           9.6460    57.5540     0.3400 nv         1 VP9      -1.087000
     18 N            9.2510    55.2840    -3.3840 n          1 VP9      -0.391400
     19 O1           8.6760    56.3470    -5.3870 o          1 VP9      -0.481000
     20 O            8.3360    59.2910    -4.8280 os         1 VP9      -0.323100
     21 C            8.0530    60.6610    -5.1670 c3         1 VP9       0.147900
     22 H1           8.5340    60.8710    -2.6000 ha         1 VP9       0.124000
     23 H2           9.1140    60.0670    -0.3390 ha         1 VP9       0.121000
     24 H3           8.6750    50.9010    -2.3730 hn         1 VP9       0.331500
     25 H4           8.7560    53.8390    -4.8300 h1         1 VP9       0.101700
     26 H5          11.4310    53.6770    -3.3830 hc         1 VP9       0.072700
     27 H6          11.1570    54.1450    -5.0580 hc         1 VP9       0.072700
     28 H7          10.3560    51.9000    -5.6140 hc         1 VP9       0.082200
     29 H8          11.9260    51.6820    -4.8380 hc         1 VP9       0.082200
     30 H9           9.5310    58.1690     1.1440 hn         1 VP9       0.483500
     31 H10          9.7220    56.5520     0.5140 hn         1 VP9       0.483500
     32 H11          7.8260    60.7480    -6.2360 h1         1 VP9       0.046700
     33 H12          7.1870    61.0310    -4.6040 h1         1 VP9       0.046700
     34 H13          8.9170    61.3020    -4.9500 h1         1 VP9       0.046700
     35 O4           9.7730    54.8970    -1.1310 o          1 VP9      -0.521000
@<TRIPOS>BOND
     1     1     2 ar  
     2     1     6 ar  
     3     1    20 1   
     4     2     3 ar  
     5     2    22 1   
     6     3     4 ar  
     7     3    23 1   
     8     4     5 ar  
     9     4    17 1   
    10     5     6 ar  
    11     5    16 1   
    12     6    10 1   
    13     7    14 2   
    14     8    15 2   
    15     9    14 1   
    16     9    15 1   
    17     9    24 1   
    18    10    18 1   
    19    10    19 2   
    20    11    12 1   
    21    11    15 1   
    22    11    18 1   
    23    11    25 1   
    24    12    13 1   
    25    12    26 1   
    26    12    27 1   
    27    13    14 1   
    28    13    28 1   
    29    13    29 1   
    30    16    18 1   
    31    16    35 2   
    32    17    30 1   
    33    17    31 1   
    34    20    21 1   
    35    21    32 1   
    36    21    33 1   
    37    21    34 1   
@<TRIPOS>SUBSTRUCTURE
     1 VP9         1 TEMP              0 ****  ****    0 ROOT
