@<TRIPOS>MOLECULE
VPA
   58    60     1     0     0
SMALL
bcc


@<TRIPOS>ATOM
      1 C1          -2.3760    -0.1180     0.0210 c2         1 VPA       0.625200
      2 C2          -2.7990    -1.2070     0.9880 c3         1 VPA      -0.124400
      3 N2          -2.2070    -0.2360    -1.2330 n2         1 VPA      -0.832100
      4 C3          -3.0960    -2.5290     0.3440 ca         1 VPA      -0.103300
      5 C4          -2.0610    -3.3900    -0.0190 ca         1 VPA      -0.115000
      6 C5          -2.3370    -4.6150    -0.6110 ca         1 VPA      -0.130000
      7 C6          -3.6520    -4.9950    -0.8500 ca         1 VPA      -0.122000
      8 C8          -4.4100    -2.9170     0.0960 ca         1 VPA      -0.115000
      9 C7          -4.6880    -4.1430    -0.4960 ca         1 VPA      -0.130000
     10 N1          -2.1840     1.0930     0.6450 nu         1 VPA      -0.842200
     11 C9          -1.4740     2.1460     0.0100 c6         1 VPA       0.387300
     12 O5          -0.0870     1.8890     0.1080 os         1 VPA      -0.442600
     13 C10         -1.7850     3.4910     0.6670 c6         1 VPA       0.084100
     14 O2          -3.1370     3.8420     0.5170 oh         1 VPA      -0.594800
     15 C11         -0.9520     4.5760    -0.0060 c6         1 VPA       0.117100
     16 O3          -1.0690     5.8160     0.6490 oh         1 VPA      -0.604800
     17 C12          0.5280     4.2020    -0.0080 c6         1 VPA       0.123100
     18 O4           1.2900     5.1030    -0.7710 oh         1 VPA      -0.592800
     19 C13          0.7040     2.8080    -0.6070 c6         1 VPA       0.134100
     20 C14          2.1410     2.3270    -0.5200 c3         1 VPA       0.156400
     21 O6           2.2290     1.0120    -1.0360 os         1 VPA      -0.393600
     22 C1A          2.6390     0.0260    -0.1640 c6         1 VPA       0.308900
     23 O5A          4.0410    -0.0450    -0.2300 os         1 VPA      -0.424600
     24 C5A          4.5650    -1.0300     0.6330 c6         1 VPA       0.113400
     25 C4A          4.0730    -2.4150     0.2230 c6         1 VPA       0.068100
     26 O4A          4.5260    -3.4050     1.1180 oh         1 VPA      -0.600800
     27 C3A          2.5500    -2.4350     0.2510 c6         1 VPA       0.155100
     28 O3A          2.0240    -3.6430    -0.2380 oh         1 VPA      -0.580800
     29 C2A          1.9940    -1.2960    -0.5920 c6         1 VPA       0.140100
     30 O2A          0.6090    -1.2670    -0.3990 oh         1 VPA      -0.600800
     31 H1          -1.9950    -1.3200     1.7210 hc         1 VPA       0.063200
     32 H2          -3.6700    -0.8530     1.5450 hc         1 VPA       0.063200
     33 H3          -2.4290    -1.1780    -1.5340 hn         1 VPA       0.407400
     34 H4          -1.0330    -3.0960     0.1530 ha         1 VPA       0.144000
     35 H5          -1.5240    -5.2750    -0.8850 ha         1 VPA       0.133500
     36 H6          -3.8680    -5.9510    -1.3100 ha         1 VPA       0.130000
     37 H7          -5.2250    -2.2590     0.3740 ha         1 VPA       0.144000
     38 H8          -5.7150    -4.4320    -0.6760 ha         1 VPA       0.133500
     39 H9          -2.1170     1.0630     1.6520 hn         1 VPA       0.414800
     40 H10         -1.7750     2.1800    -1.0440 h2         1 VPA       0.095700
     41 H11         -1.4990     3.4320     1.7290 h1         1 VPA       0.047700
     42 H12         -3.6740     3.1970     0.9900 ho         1 VPA       0.421000
     43 H13         -1.2810     4.6550    -1.0540 h1         1 VPA       0.058700
     44 H14         -1.9590     6.1550     0.5100 ho         1 VPA       0.427000
     45 H15          0.8760     4.1710     1.0370 h1         1 VPA       0.049700
     46 H16          1.1890     5.9820    -0.3920 ho         1 VPA       0.426000
     47 H17          0.3930     2.8360    -1.6640 h1         1 VPA       0.068700
     48 H18          2.7880     2.9850    -1.1030 h1         1 VPA       0.061200
     49 H19          2.4810     2.3670     0.5210 h1         1 VPA       0.061200
     50 H20          2.3290     0.2540     0.8720 h2         1 VPA       0.036700
     51 H21          5.6530    -0.9690     0.5680 h1         1 VPA       0.054200
     52 H22          4.2810    -0.8350     1.6780 h1         1 VPA       0.054200
     53 H23          4.4100    -2.6230    -0.8020 h1         1 VPA       0.059700
     54 H24          5.4430    -3.6100     0.9120 ho         1 VPA       0.413000
     55 H25          2.2340    -2.2670     1.2950 h1         1 VPA       0.047700
     56 H26          2.3410    -4.3530     0.3290 ho         1 VPA       0.415000
     57 H27          2.2590    -1.4750    -1.6470 h1         1 VPA       0.065700
     58 H28          0.2210    -0.5220    -0.8730 ho         1 VPA       0.441000
@<TRIPOS>BOND
     1     1     2 1   
     2     1     3 2   
     3     1    10 1   
     4     2     4 1   
     5     2    31 1   
     6     2    32 1   
     7     3    33 1   
     8     4     5 ar  
     9     4     8 ar  
    10     5     6 ar  
    11     5    34 1   
    12     6     7 ar  
    13     6    35 1   
    14     7     9 ar  
    15     7    36 1   
    16     8     9 ar  
    17     8    37 1   
    18     9    38 1   
    19    10    11 1   
    20    10    39 1   
    21    11    12 1   
    22    11    13 1   
    23    11    40 1   
    24    12    19 1   
    25    13    14 1   
    26    13    15 1   
    27    13    41 1   
    28    14    42 1   
    29    15    16 1   
    30    15    17 1   
    31    15    43 1   
    32    16    44 1   
    33    17    18 1   
    34    17    19 1   
    35    17    45 1   
    36    18    46 1   
    37    19    20 1   
    38    19    47 1   
    39    20    21 1   
    40    20    48 1   
    41    20    49 1   
    42    21    22 1   
    43    22    23 1   
    44    22    29 1   
    45    22    50 1   
    46    23    24 1   
    47    24    25 1   
    48    24    51 1   
    49    24    52 1   
    50    25    26 1   
    51    25    27 1   
    52    25    53 1   
    53    26    54 1   
    54    27    28 1   
    55    27    29 1   
    56    27    55 1   
    57    28    56 1   
    58    29    30 1   
    59    29    57 1   
    60    30    58 1   
@<TRIPOS>SUBSTRUCTURE
     1 VPA         1 TEMP              0 ****  ****    0 ROOT
