@<TRIPOS>MOLECULE
VPA
   58    60     1     0     0
SMALL
No Charge or Current Charge


@<TRIPOS>ATOM
      1 C1          -2.2430    -0.6180    -0.1930 c2         1 VPA       0.625200
      2 C2          -2.2430    -2.0070     0.4050 c3         1 VPA      -0.124400
      3 N2          -3.1930    -0.1130    -0.8690 n2         1 VPA      -0.832100
      4 C3          -3.4830    -2.8340     0.0710 ca         1 VPA      -0.103300
      5 C4          -3.5110    -3.6350    -1.0880 ca         1 VPA      -0.097000
      6 C5          -4.6560    -4.3890    -1.4010 ca         1 VPA      -0.112000
      7 C6          -5.7790    -4.3450    -0.5580 ca         1 VPA      -0.104000
      8 C8          -4.6120    -2.7940     0.9120 ca         1 VPA      -0.097000
      9 C7          -5.7570    -3.5470     0.5980 ca         1 VPA      -0.112000
     10 N1          -1.1860     0.1790     0.1400 nu         1 VPA      -0.897400
     11 C9          -0.8560     1.4630    -0.4470 c6         1 VPA       0.410500
     12 O5           0.5400     1.6310    -0.1650 os         1 VPA      -0.489000
     13 C10         -1.6870     2.6160     0.2180 c6         1 VPA       0.107300
     14 O2          -3.1020     2.4850    -0.0500 oh         1 VPA      -0.717000
     15 C11         -1.1580     3.9790    -0.3080 c6         1 VPA       0.140300
     16 O3          -1.8710     5.0640     0.3130 oh         1 VPA      -0.667000
     17 C12          0.3710     4.0950    -0.0420 c6         1 VPA       0.146300
     18 O4           0.8580     5.3470    -0.5580 oh         1 VPA      -0.715000
     19 C13          1.1070     2.8720    -0.6750 c6         1 VPA       0.157300
     20 C14          2.6390     2.9000    -0.3630 c3         1 VPA       0.179600
     21 O6           3.2710     1.7080    -0.8720 os         1 VPA      -0.440000
     22 C1A          3.3290     0.5830     0.0240 c6         1 VPA       0.355300
     23 O5A          4.6450     0.5250     0.6020 os         1 VPA      -0.471000
     24 C5A          4.7910    -0.5150     1.5950 c6         1 VPA       0.136600
     25 C4A          4.5480    -1.9080     0.9450 c6         1 VPA       0.091300
     26 O4A          4.6570    -2.9740     1.9140 oh         1 VPA      -0.723000
     27 C3A          3.1400    -1.9360     0.2710 c6         1 VPA       0.178300
     28 O3A          2.9570    -3.2140    -0.3650 oh         1 VPA      -0.643000
     29 C2A          2.9860    -0.7420    -0.7320 c6         1 VPA       0.163300
     30 O2A          1.6560    -0.6850    -1.3160 oh         1 VPA      -0.723000
     31 H1          -1.3470    -2.5380     0.0640 hc         1 VPA       0.063200
     32 H2          -2.1410    -1.9280     1.4930 hc         1 VPA       0.063200
     33 H3          -3.9020    -0.8530    -0.9860 hn         1 VPA       0.407400
     34 H4          -2.6460    -3.6740    -1.7480 ha         1 VPA       0.126000
     35 H5          -4.6720    -5.0060    -2.2970 ha         1 VPA       0.115500
     36 H6          -6.6650    -4.9280    -0.8000 ha         1 VPA       0.112000
     37 H7          -4.6050    -2.1770     1.8090 ha         1 VPA       0.126000
     38 H8          -6.6260    -3.5130     1.2520 ha         1 VPA       0.115500
     39 H9          -0.5640    -0.1820     0.8540 hn         1 VPA       0.470000
     40 H10         -1.0230     1.4620    -1.5380 h2         1 VPA       0.095700
     41 H11         -1.5120     2.5700     1.3030 h1         1 VPA       0.047700
     42 H12         -3.2170     1.5250    -0.3250 ho         1 VPA       0.520000
     43 H13         -1.3200     4.0060    -1.3970 h1         1 VPA       0.058700
     44 H14         -2.7960     4.7350     0.3990 ho         1 VPA       0.466000
     45 H15          0.5310     4.0590     1.0470 h1         1 VPA       0.049700
     46 H16          0.1530     6.0030    -0.3350 ho         1 VPA       0.525000
     47 H17          0.9820     2.8960    -1.7680 h1         1 VPA       0.068700
     48 H18          3.0690     3.7840    -0.8510 h1         1 VPA       0.061200
     49 H19          2.7990     3.0090     0.7180 h1         1 VPA       0.061200
     50 H20          2.5960     0.7190     0.8340 h2         1 VPA       0.036700
     51 H21          5.8080    -0.4650     2.0090 h1         1 VPA       0.054200
     52 H22          4.0770    -0.3410     2.4140 h1         1 VPA       0.054200
     53 H23          5.3050    -2.0430     0.1570 h1         1 VPA       0.059700
     54 H24          5.5950    -3.0000     2.2250 ho         1 VPA       0.512000
     55 H25          2.3860    -1.8110     1.0630 h1         1 VPA       0.047700
     56 H26          3.3560    -3.8570     0.2640 ho         1 VPA       0.454000
     57 H27          3.7330    -0.8710    -1.5290 h1         1 VPA       0.065700
     58 H28          1.2220     0.1300    -0.9480 ho         1 VPA       0.540000
@<TRIPOS>BOND
     1     1     2 1   
     2     1     3 2   
     3     1    10 1   
     4     2     4 1   
     5     2    31 1   
     6     2    32 1   
     7     3    33 1   
     8     4     5 ar  
     9     4     8 ar  
    10     5     6 ar  
    11     5    34 1   
    12     6     7 ar  
    13     6    35 1   
    14     7     9 ar  
    15     7    36 1   
    16     8     9 ar  
    17     8    37 1   
    18     9    38 1   
    19    10    11 1   
    20    10    39 1   
    21    11    12 1   
    22    11    13 1   
    23    11    40 1   
    24    12    19 1   
    25    13    14 1   
    26    13    15 1   
    27    13    41 1   
    28    14    42 1   
    29    15    16 1   
    30    15    17 1   
    31    15    43 1   
    32    16    44 1   
    33    17    18 1   
    34    17    19 1   
    35    17    45 1   
    36    18    46 1   
    37    19    20 1   
    38    19    47 1   
    39    20    21 1   
    40    20    48 1   
    41    20    49 1   
    42    21    22 1   
    43    22    23 1   
    44    22    29 1   
    45    22    50 1   
    46    23    24 1   
    47    24    25 1   
    48    24    51 1   
    49    24    52 1   
    50    25    26 1   
    51    25    27 1   
    52    25    53 1   
    53    26    54 1   
    54    27    28 1   
    55    27    29 1   
    56    27    55 1   
    57    28    56 1   
    58    29    30 1   
    59    29    57 1   
    60    30    58 1   
@<TRIPOS>SUBSTRUCTURE
     1 VPA         1 TEMP              0 ****  ****    0 ROOT
