@<TRIPOS>MOLECULE
VPB
   50    53     1     0     0
SMALL
No Charge or Current Charge


@<TRIPOS>ATOM
      1 C1          44.7980   -18.9920    22.7350 c          1 VPB       0.621100
      2 C2          44.8770   -20.4260    24.8030 c6         1 VPB       0.060000
      3 C3          44.0730   -20.9140    26.0320 c6         1 VPB       0.136100
      4 C4          42.5560   -19.0810    25.9320 c6         1 VPB       0.136100
      5 C5          43.2470   -18.4650    24.6890 c6         1 VPB       0.060000
      6 C6          44.1260   -17.8710    21.9240 c3         1 VPB      -0.156400
      7 C7          44.8070   -17.4990    20.5970 c3         1 VPB       0.172600
      8 C8          46.7770   -16.1400    19.9470 ca         1 VPB       0.143100
      9 O1          45.7620   -19.6070    22.2960 o          1 VPB      -0.609100
     10 C17         45.3390   -15.1730    24.6280 cc         1 VPB      -0.169000
     11 C16         45.3520   -14.1950    23.6210 cd         1 VPB      -0.085000
     12 C15         46.3500   -14.1380    22.5680 cd         1 VPB      -0.223000
     13 O2          43.5040   -19.8000    26.7380 os         1 VPB      -0.438000
     14 C14         47.3220   -15.1090    22.5580 cc         1 VPB       0.200100
     15 C13         47.8820   -15.3020    20.3170 ca         1 VPB       0.047100
     16 C12         48.6620   -14.7160    19.3010 ca         1 VPB      -0.073000
     17 C9          46.4900   -16.3270    18.5720 ca         1 VPB      -0.193000
     18 C11         48.3600   -14.9130    17.9450 ca         1 VPB      -0.141000
     19 C10         47.2720   -15.7150    17.5810 ca         1 VPB      -0.067000
     20 C18         47.3250   -16.0840    23.5780 cc         1 VPB      -0.141000
     21 C19         48.1790   -17.1110    23.8650 cd         1 VPB      -0.177000
     22 C20         47.7100   -17.7540    25.0570 cd         1 VPB      -0.038700
     23 C21         48.3220   -18.8580    25.7150 ch         1 VPB       0.319700
     24 C22         46.5580   -17.1130    25.4880 cc         1 VPB      -0.198100
     25 N1          44.2190   -19.3620    23.9740 n          1 VPB      -0.405800
     26 N2          46.3640   -16.1220    24.5410 na         1 VPB       0.173100
     27 N3          48.7990   -19.7760    26.2590 n1         1 VPB      -0.466000
     28 O3          46.0110   -16.7800    20.9070 os         1 VPB      -0.336100
     29 O4          48.3130   -15.0230    21.6150 os         1 VPB      -0.218200
     30 H1          45.0980   -21.2970    24.1680 h1         1 VPB       0.064700
     31 H2          45.8420   -20.0400    25.1560 h1         1 VPB       0.064700
     32 H3          43.2650   -21.5870    25.7080 h1         1 VPB       0.051950
     33 H4          44.7300   -21.4770    26.7100 h1         1 VPB       0.051950
     34 H5          42.0940   -18.2870    26.5350 h1         1 VPB       0.051950
     35 H6          41.7600   -19.7700    25.6130 h1         1 VPB       0.051950
     36 H7          43.7780   -17.5580    25.0040 h1         1 VPB       0.064700
     37 H8          42.4560   -18.1490    23.9960 h1         1 VPB       0.064700
     38 H9          43.9940   -16.9920    22.5630 hc         1 VPB       0.070200
     39 H10         43.0880   -18.1750    21.7550 hc         1 VPB       0.070200
     40 H11         45.0170   -18.4010    20.0070 h1         1 VPB       0.049200
     41 H12         44.1220   -16.8590    20.0230 h1         1 VPB       0.049200
     42 H14         44.5790   -13.4320    23.6390 ha         1 VPB       0.127000
     43 H15         46.3330   -13.3540    21.8180 ha         1 VPB       0.135000
     44 H16         49.5110   -14.0920    19.5730 ha         1 VPB       0.132000
     45 H17         45.6670   -16.9560    18.2470 ha         1 VPB       0.122000
     46 H18         48.9720   -14.4440    17.1770 ha         1 VPB       0.122000
     47 H19         47.0400   -15.8700    16.5290 ha         1 VPB       0.117000
     48 H20         49.0670   -17.3790    23.2970 ha         1 VPB       0.228000
     49 H21         45.9090   -17.2730    26.3400 h4         1 VPB       0.232000
     50 H13         44.6290   -15.2470    25.4400 h4         1 VPB       0.145000
@<TRIPOS>BOND
     1     1     6 1   
     2     1     9 2   
     3     1    25 1   
     4     2     3 1   
     5     2    25 1   
     6     2    30 1   
     7     2    31 1   
     8     3    13 1   
     9     3    32 1   
    10     3    33 1   
    11     4     5 1   
    12     4    13 1   
    13     4    34 1   
    14     4    35 1   
    15     5    25 1   
    16     5    36 1   
    17     5    37 1   
    18     6     7 1   
    19     6    38 1   
    20     6    39 1   
    21     7    28 1   
    22     7    40 1   
    23     7    41 1   
    24     8    15 ar  
    25     8    17 ar  
    26     8    28 1   
    27    10    11 2   
    28    10    26 1   
    29    10    50 1   
    30    11    12 1   
    31    11    42 1   
    32    12    14 2   
    33    12    43 1   
    34    14    20 1   
    35    14    29 1   
    36    15    16 ar  
    37    15    29 1   
    38    16    18 ar  
    39    16    44 1   
    40    17    19 ar  
    41    17    45 1   
    42    18    19 ar  
    43    18    46 1   
    44    19    47 1   
    45    20    21 2   
    46    20    26 1   
    47    21    22 1   
    48    21    48 1   
    49    22    23 1   
    50    22    24 2   
    51    23    27 3   
    52    24    26 1   
    53    24    49 1   
@<TRIPOS>SUBSTRUCTURE
     1 VPB         1 TEMP              0 ****  ****    0 ROOT
