@<TRIPOS>MOLECULE
VPB
   50    53     1     0     0
SMALL
abcg2


@<TRIPOS>ATOM
      1 C1          44.4160   -19.3770    22.1230 c          1 VPB       0.621100
      2 C2          45.3430   -20.3400    24.1570 c6         1 VPB       0.060000
      3 C3          44.5610   -20.9520    25.3060 c6         1 VPB       0.136100
      4 C4          43.2570   -19.0450    25.5250 c6         1 VPB       0.136100
      5 C5          43.9910   -18.3580    24.3860 c6         1 VPB       0.060000
      6 C6          43.5670   -18.3330    21.4190 c3         1 VPB      -0.156400
      7 C7          44.3140   -17.7270    20.2510 c3         1 VPB       0.172600
      8 C8          46.3200   -16.4790    19.9530 ca         1 VPB       0.143100
      9 O1          44.9690   -20.2350    21.4470 o          1 VPB      -0.609100
     10 C17         45.8020   -14.2810    24.9370 cc         1 VPB      -0.169000
     11 C16         45.7490   -13.7580    23.6950 cd         1 VPB      -0.085000
     12 C15         46.3870   -14.3910    22.5880 cd         1 VPB      -0.223000
     13 O2          44.0810   -19.9690    26.1950 os         1 VPB      -0.438000
     14 C14         47.0630   -15.5520    22.7920 cc         1 VPB       0.200100
     15 C13         47.5010   -15.9980    20.5330 ca         1 VPB       0.047100
     16 C12         48.4460   -15.3290    19.7840 ca         1 VPB      -0.073000
     17 C9          46.1200   -16.2830    18.5920 ca         1 VPB      -0.193000
     18 C11         48.2390   -15.1360    18.4220 ca         1 VPB      -0.141000
     19 C10         47.0780   -15.6140    17.8370 ca         1 VPB      -0.067000
     20 C18         47.1230   -16.1240    24.0920 cc         1 VPB      -0.141000
     21 C19         47.6950   -17.2730    24.5950 cd         1 VPB      -0.177000
     22 C20         47.3870   -17.2870    25.9730 cd         1 VPB      -0.038700
     23 C21         47.7520   -18.2900    26.9000 ch         1 VPB       0.319700
     24 C22         46.6440   -16.1600    26.2800 cc         1 VPB      -0.198100
     25 N1          44.5260   -19.3500    23.4690 n          1 VPB      -0.405800
     26 N2          46.4880   -15.4600    25.1330 na         1 VPB       0.173100
     27 N3          48.0550   -19.1110    27.6500 n1         1 VPB      -0.466000
     28 O3          45.4680   -17.0960    20.7850 os         1 VPB      -0.336100
     29 O4          47.7400   -16.2580    21.8610 os         1 VPB      -0.218200
     30 H1          45.6470   -21.1180    23.4640 h1         1 VPB       0.064700
     31 H2          46.2480   -19.8530    24.5360 h1         1 VPB       0.064700
     32 H3          43.7290   -21.5450    24.9010 h1         1 VPB       0.051950
     33 H4          45.2080   -21.6210    25.8740 h1         1 VPB       0.051950
     34 H5          42.9400   -18.2980    26.2540 h1         1 VPB       0.051950
     35 H6          42.3580   -19.5400    25.1310 h1         1 VPB       0.051950
     36 H7          44.8170   -17.7640    24.7890 h1         1 VPB       0.064700
     37 H8          43.3070   -17.6750    23.8930 h1         1 VPB       0.064700
     38 H9          43.2020   -17.5330    22.0580 hc         1 VPB       0.070200
     39 H10         42.6820   -18.8420    21.0290 hc         1 VPB       0.070200
     40 H11         44.5990   -18.4930    19.5240 h1         1 VPB       0.049200
     41 H12         43.6720   -17.0000    19.7450 h1         1 VPB       0.049200
     42 H14         45.2100   -12.8350    23.5420 ha         1 VPB       0.127000
     43 H15         46.3250   -13.9370    21.6090 ha         1 VPB       0.135000
     44 H16         49.3480   -14.9710    20.2640 ha         1 VPB       0.132000
     45 H17         45.2250   -16.6460    18.1050 ha         1 VPB       0.122000
     46 H18         48.9800   -14.6160    17.8310 ha         1 VPB       0.122000
     47 H19         46.9060   -15.4710    16.7780 ha         1 VPB       0.117000
     48 H20         48.2560   -18.0130    24.0490 ha         1 VPB       0.228000
     49 H21         46.2260   -15.8270    27.2150 h4         1 VPB       0.232000
     50 H13         45.3380   -13.8430    25.8080 h4         1 VPB       0.145000
@<TRIPOS>BOND
     1     1     6 1   
     2     1     9 2   
     3     1    25 1   
     4     2     3 1   
     5     2    25 1   
     6     2    30 1   
     7     2    31 1   
     8     3    13 1   
     9     3    32 1   
    10     3    33 1   
    11     4     5 1   
    12     4    13 1   
    13     4    34 1   
    14     4    35 1   
    15     5    25 1   
    16     5    36 1   
    17     5    37 1   
    18     6     7 1   
    19     6    38 1   
    20     6    39 1   
    21     7    28 1   
    22     7    40 1   
    23     7    41 1   
    24     8    15 ar  
    25     8    17 ar  
    26     8    28 1   
    27    10    11 2   
    28    10    26 1   
    29    10    50 1   
    30    11    12 1   
    31    11    42 1   
    32    12    14 2   
    33    12    43 1   
    34    14    20 1   
    35    14    29 1   
    36    15    16 ar  
    37    15    29 1   
    38    16    18 ar  
    39    16    44 1   
    40    17    19 ar  
    41    17    45 1   
    42    18    19 ar  
    43    18    46 1   
    44    19    47 1   
    45    20    21 2   
    46    20    26 1   
    47    21    22 1   
    48    21    48 1   
    49    22    23 1   
    50    22    24 2   
    51    23    27 3   
    52    24    26 1   
    53    24    49 1   
@<TRIPOS>SUBSTRUCTURE
     1 VPB         1 TEMP              0 ****  ****    0 ROOT
