@<TRIPOS>MOLECULE
VPD
   62    65     1     0     0
SMALL
No Charge or Current Charge


@<TRIPOS>ATOM
      1 C5          46.1790   -28.4490   -38.6330 c3         1 VPD      -0.063000
      2 C6          46.8850   -27.2840   -37.8710 c3         1 VPD       0.200600
      3 C8          47.2490   -29.4310   -39.2060 c3         1 VPD       0.119600
      4 O9          48.0390   -29.9890   -38.1340 os         1 VPD      -0.470000
      5 C16         41.7340   -31.0160   -35.8290 c5         1 VPD       0.290300
      6 C21         38.2520   -30.2840   -36.5900 ca         1 VPD      -0.384900
      7 C24         35.5060   -31.1010   -37.5540 c5         1 VPD       0.243500
      8 C27         33.7900   -32.1760   -38.8240 c5         1 VPD      -0.081400
      9 C30         37.8370   -29.4990   -34.1160 ca         1 VPD       0.290000
     10 C33         39.2710   -30.3190   -35.6920 ca         1 VPD       0.155500
     11 C34         42.2830   -32.4840   -35.9940 c5         1 VPD       0.078300
     12 C37         43.1520   -32.3100   -37.2720 c5         1 VPD       0.137300
     13 P2          45.2810   -27.7510   -40.1590 p5         1 VPD       1.264500
     14 O3          44.9260   -28.8700   -41.0850 o          1 VPD      -0.909833
     15 O4          44.0230   -27.0400   -39.7760 o          1 VPD      -0.909833
     16 O7          45.9680   -26.4160   -37.1860 oh         1 VPD      -0.667000
     17 C10         49.0540   -30.9080   -38.5610 c3         1 VPD       0.162900
     18 O11         45.3220   -29.1660   -37.6630 os         1 VPD      -0.448000
     19 C13         43.8050   -30.9360   -36.9500 c5         1 VPD       0.168300
     20 O15         42.6860   -30.1420   -36.4940 os         1 VPD      -0.371000
     21 N18         40.3860   -30.7810   -36.3750 na         1 VPD      -0.019100
     22 N19         40.0790   -31.0280   -37.7270 nc         1 VPD      -0.446100
     23 C20         38.7840   -30.7150   -37.8490 cd         1 VPD       0.370800
     24 C22         36.9880   -29.8480   -36.2100 ca         1 VPD       0.464900
     25 N23         35.9200   -29.7590   -37.0790 nu         1 VPD      -0.920100
     26 C25         34.4900   -31.6270   -36.5130 c5         1 VPD      -0.100900
     27 C26         33.7370   -32.7030   -37.3490 c5         1 VPD      -0.081400
     28 C28         34.5510   -30.8210   -38.7350 c5         1 VPD      -0.100900
     29 N29         36.7750   -29.4290   -34.9540 nb         1 VPD      -0.333000
     30 N32         39.0860   -29.9290   -34.4170 nb         1 VPD      -0.216000
     31 O39         44.0860   -33.3880   -37.3880 oh         1 VPD      -0.680000
     32 H1          47.5780   -27.7080   -37.1330 h1         1 VPD      -0.005800
     33 H2          47.4970   -26.7030   -38.5730 h1         1 VPD      -0.005800
     34 H3          46.7680   -30.2300   -39.7840 h1         1 VPD       0.042700
     35 H4          47.8980   -28.8790   -39.8990 h1         1 VPD       0.042700
     36 H7          41.6720   -30.7560   -34.7660 h2         1 VPD       0.089700
     37 H8          36.3100   -31.8110   -37.8030 h1         1 VPD       0.070700
     38 H9          32.7890   -32.0500   -39.2540 hc         1 VPD       0.041700
     39 H10         34.3240   -32.8850   -39.4670 hc         1 VPD       0.041700
     40 H11         41.4660   -33.1990   -36.1650 h1         1 VPD       0.031700
     41 H12         42.5270   -32.2390   -38.1740 h1         1 VPD       0.070700
     42 H15         46.5140   -25.7840   -36.6700 ho         1 VPD       0.436000
     43 H16         49.6110   -31.2880   -37.6960 h1         1 VPD      -0.007300
     44 H17         48.6070   -31.7630   -39.0850 h1         1 VPD      -0.007300
     45 H18         49.7640   -30.4150   -39.2380 h1         1 VPD      -0.007300
     46 H19         44.5280   -31.0340   -36.1290 h1         1 VPD       0.075700
     47 H20         38.3040   -30.8110   -38.8150 h4         1 VPD       0.050800
     48 H21         35.1920   -29.1520   -36.7050 hn         1 VPD       0.498000
     49 H22         33.7970   -30.8490   -36.1660 hc         1 VPD       0.060950
     50 H23         34.9760   -32.0500   -35.6270 hc         1 VPD       0.060950
     51 H24         32.7080   -32.8400   -36.9960 hc         1 VPD       0.041700
     52 H25         34.2310   -33.6790   -37.2700 hc         1 VPD       0.041700
     53 H26         35.0870   -30.5790   -39.6600 hc         1 VPD       0.060950
     54 H27         33.8550   -29.9970   -38.5330 hc         1 VPD       0.060950
     55 H29         44.1980   -33.6940   -36.4550 ho         1 VPD       0.483000
     56 C12         44.5090   -30.2620   -38.1550 c3         1 VPD       0.186600
     57 O1          46.1780   -26.8050   -40.8900 o          1 VPD      -0.909833
     58 Cl31        37.5650   -28.9710   -32.4640 cl         1 VPD      -0.178000
     59 H5          43.7480   -29.9160   -38.8650 h1         1 VPD       0.043200
     60 H6          45.1290   -31.0200   -38.6500 h1         1 VPD       0.043200
     61 O36         43.0980   -32.9220   -34.8830 oh         1 VPD      -0.688000
     62 H28         42.4920   -33.1670   -34.1440 ho         1 VPD       0.488000
@<TRIPOS>BOND
     1     1     2 1   
     2     1     3 1   
     3     1    13 1   
     4     1    18 1   
     5     2    16 1   
     6     2    32 1   
     7     2    33 1   
     8     3     4 1   
     9     3    34 1   
    10     3    35 1   
    11     4    17 1   
    12     5    11 1   
    13     5    20 1   
    14     5    21 1   
    15     5    36 1   
    16     6    10 ar  
    17     6    23 1   
    18     6    24 ar  
    19     7    25 1   
    20     7    26 1   
    21     7    28 1   
    22     7    37 1   
    23     8    27 1   
    24     8    28 1   
    25     8    38 1   
    26     8    39 1   
    27     9    29 ar  
    28     9    30 ar  
    29     9    58 1   
    30    10    21 1   
    31    10    30 ar  
    32    11    12 1   
    33    11    40 1   
    34    11    61 1   
    35    12    19 1   
    36    12    31 1   
    37    12    41 1   
    38    13    14 1   
    39    13    15 1   
    40    13    57 1   
    41    16    42 1   
    42    17    43 1   
    43    17    44 1   
    44    17    45 1   
    45    18    56 1   
    46    19    20 1   
    47    19    46 1   
    48    19    56 1   
    49    21    22 1   
    50    22    23 2   
    51    23    47 1   
    52    24    25 1   
    53    24    29 ar  
    54    25    48 1   
    55    26    27 1   
    56    26    49 1   
    57    26    50 1   
    58    27    51 1   
    59    27    52 1   
    60    28    53 1   
    61    28    54 1   
    62    31    55 1   
    63    56    59 1   
    64    56    60 1   
    65    61    62 1   
@<TRIPOS>SUBSTRUCTURE
     1 VPD         1 TEMP              0 ****  ****    0 ROOT
