@<TRIPOS>MOLECULE
VPD
   62    65     1     0     0
SMALL
bcc


@<TRIPOS>ATOM
      1 C5          45.3840   -28.6440   -39.0180 c3         1 VPD       0.071600
      2 C6          46.2550   -27.4230   -38.7420 c3         1 VPD       0.177400
      3 C8          46.2800   -29.7180   -39.6260 c3         1 VPD       0.096400
      4 O9          47.3400   -30.0690   -38.7580 os         1 VPD      -0.423600
      5 C16         41.8500   -30.4080   -35.0180 c5         1 VPD       0.237800
      6 C21         38.4680   -30.9530   -36.1800 ca         1 VPD      -0.515500
      7 C24         36.1880   -31.9390   -37.8800 c5         1 VPD       0.243500
      8 C27         34.9840   -30.2560   -39.1080 c5         1 VPD      -0.081400
      9 C30         37.7490   -29.9430   -33.8460 ca         1 VPD       0.816000
     10 C33         39.3610   -30.4700   -35.2180 ca         1 VPD       0.483800
     11 C34         42.5490   -31.7240   -34.6390 c5         1 VPD       0.055100
     12 C37         43.4800   -31.9160   -35.8380 c5         1 VPD       0.114100
     13 P2          43.9830   -28.2780   -40.2760 p5         1 VPD       1.106700
     14 O3          43.5150   -29.6650   -40.7500 o          1 VPD      -0.909833
     15 O4          42.9080   -27.5030   -39.5140 o          1 VPD      -0.909833
     16 O7          45.5080   -26.3520   -38.2050 oh         1 VPD      -0.544800
     17 C10         48.1550   -31.0700   -39.2990 c3         1 VPD       0.139700
     18 O11         44.9020   -29.0400   -37.7270 os         1 VPD      -0.401600
     19 C13         43.8770   -30.4780   -36.1600 c5         1 VPD       0.145100
     20 O15         42.7360   -29.6900   -35.8200 os         1 VPD      -0.324600
     21 N18         40.6000   -30.6290   -35.7170 na         1 VPD       0.010200
     22 N19         40.5660   -31.1920   -36.9390 nc         1 VPD      -0.446100
     23 C20         39.3090   -31.3860   -37.2380 cd         1 VPD       0.370800
     24 C22         37.0990   -30.8940   -35.8200 ca         1 VPD       0.793200
     25 N23         36.0920   -31.3440   -36.5570 nu         1 VPD      -0.864900
     26 C25         34.8430   -32.5600   -38.2560 c5         1 VPD      -0.100900
     27 C26         33.9890   -31.3940   -38.7920 c5         1 VPD      -0.081400
     28 C28         36.3740   -30.8820   -38.9700 c5         1 VPD      -0.100900
     29 N29         36.7800   -30.3640   -34.6270 nb         1 VPD      -0.859000
     30 N32         39.0440   -29.9510   -34.0260 nb         1 VPD      -0.742000
     31 O39         44.6200   -32.6880   -35.6030 oh         1 VPD      -0.557800
     32 H1          47.0600   -27.7000   -38.0480 h1         1 VPD      -0.005800
     33 H2          46.7320   -27.1360   -39.6870 h1         1 VPD      -0.005800
     34 H3          45.6900   -30.6070   -39.8800 h1         1 VPD       0.042700
     35 H4          46.6720   -29.3340   -40.5800 h1         1 VPD       0.042700
     36 H7          41.5800   -29.8350   -34.1260 h2         1 VPD       0.089700
     37 H8          36.9800   -32.6910   -37.8730 h1         1 VPD       0.070700
     38 H9          34.8710   -29.4420   -38.3890 hc         1 VPD       0.041700
     39 H10         34.8270   -29.8250   -40.0970 hc         1 VPD       0.041700
     40 H11         41.8240   -32.5390   -34.5240 h1         1 VPD       0.031700
     41 H12         42.8860   -32.3170   -36.6690 h1         1 VPD       0.070700
     42 H15         46.1350   -25.6660   -37.9590 ho         1 VPD       0.337000
     43 H16         48.9430   -31.2970   -38.5800 h1         1 VPD      -0.007300
     44 H17         47.5990   -31.9950   -39.5010 h1         1 VPD      -0.007300
     45 H18         48.6280   -30.7590   -40.2390 h1         1 VPD      -0.007300
     46 H19         44.7220   -30.1880   -35.5210 h1         1 VPD       0.075700
     47 H20         39.0480   -31.8180   -38.1910 h4         1 VPD       0.050800
     48 H21         35.1760   -31.2370   -36.1430 hn         1 VPD       0.442800
     49 H22         34.3820   -33.0930   -37.4230 hc         1 VPD       0.060950
     50 H23         35.0230   -33.2950   -39.0410 hc         1 VPD       0.060950
     51 H24         33.2480   -31.0740   -38.0580 hc         1 VPD       0.041700
     52 H25         33.4340   -31.7020   -39.6780 hc         1 VPD       0.041700
     53 H26         36.6640   -31.3900   -39.8930 hc         1 VPD       0.060950
     54 H27         37.1530   -30.1510   -38.7450 hc         1 VPD       0.060950
     55 H29         44.3750   -33.6170   -35.6360 ho         1 VPD       0.384000
     56 C12         44.2690   -30.2790   -37.6060 c3         1 VPD       0.163400
     57 O1          44.7030   -27.4780   -41.3720 o          1 VPD      -0.909833
     58 CL31        37.2210   -29.2790   -32.3320 cl         1 VPD      -0.178000
     59 H5          43.3840   -30.3680   -38.2470 h1         1 VPD       0.043200
     60 H6          44.9380   -31.1100   -37.8730 h1         1 VPD       0.043200
     61 O36         43.3350   -31.5580   -33.4910 oh         1 VPD      -0.565800
     62 H28         42.7510   -31.4550   -32.7320 ho         1 VPD       0.389000
@<TRIPOS>BOND
     1     1     2 1   
     2     1     3 1   
     3     1    13 1   
     4     1    18 1   
     5     2    16 1   
     6     2    32 1   
     7     2    33 1   
     8     3     4 1   
     9     3    34 1   
    10     3    35 1   
    11     4    17 1   
    12     5    11 1   
    13     5    20 1   
    14     5    21 1   
    15     5    36 1   
    16     6    10 ar  
    17     6    23 1   
    18     6    24 ar  
    19     7    25 1   
    20     7    26 1   
    21     7    28 1   
    22     7    37 1   
    23     8    27 1   
    24     8    28 1   
    25     8    38 1   
    26     8    39 1   
    27     9    29 ar  
    28     9    30 ar  
    29     9    58 1   
    30    10    21 1   
    31    10    30 ar  
    32    11    12 1   
    33    11    40 1   
    34    11    61 1   
    35    12    19 1   
    36    12    31 1   
    37    12    41 1   
    38    13    14 1   
    39    13    15 1   
    40    13    57 1   
    41    16    42 1   
    42    17    43 1   
    43    17    44 1   
    44    17    45 1   
    45    18    56 1   
    46    19    20 1   
    47    19    46 1   
    48    19    56 1   
    49    21    22 1   
    50    22    23 2   
    51    23    47 1   
    52    24    25 1   
    53    24    29 ar  
    54    25    48 1   
    55    26    27 1   
    56    26    49 1   
    57    26    50 1   
    58    27    51 1   
    59    27    52 1   
    60    28    53 1   
    61    28    54 1   
    62    31    55 1   
    63    56    59 1   
    64    56    60 1   
    65    61    62 1   
@<TRIPOS>SUBSTRUCTURE
     1 VPD         1 TEMP              0 ****  ****    0 ROOT
