@<TRIPOS>MOLECULE
VPE
   26    26     1     0     0
SMALL
No Charge or Current Charge


@<TRIPOS>ATOM
      1 N1          -0.5950    13.3770   -33.9830 nc         1 VPE      -0.733000
      2 C7          -6.7330    16.4640   -32.8260 c3         1 VPE      -0.203400
      3 C8          -8.0400    15.6500   -32.9030 c          1 VPE       0.702000
      4 O1          -8.8510    15.9460   -33.7680 o          1 VPE      -0.736000
      5 C1          -5.6470    15.9240   -33.8050 c3         1 VPE      -0.037700
      6 C5           0.4010    12.8840   -34.7900 cc         1 VPE       0.301900
      7 C6           0.0180    12.5020   -36.0490 cd         1 VPE      -0.331000
      8 C4          -1.7510    13.3730   -34.6240 cd         1 VPE       0.562300
      9 C3          -4.1530    13.9230   -34.4360 c          1 VPE       0.601100
     10 C2          -5.1550    14.4960   -33.4250 c3         1 VPE      -0.138400
     11 O2          -8.1980    14.7280   -32.1180 o          1 VPE      -0.736000
     12 C           -4.4690    16.9250   -33.9180 c3         1 VPE      -0.094100
     13 O           -4.5020    13.5530   -35.5460 o          1 VPE      -0.578100
     14 N           -2.8630    13.8330   -33.9790 ns         1 VPE      -0.477400
     15 S           -1.7000    12.7600   -36.2840 ss         1 VPE       0.037600
     16 H1          -6.3040    16.4100   -31.8180 hc         1 VPE       0.024200
     17 H2          -6.9360    17.4900   -33.1570 hc         1 VPE       0.024200
     18 H3          -6.1080    15.8620   -34.8010 hc         1 VPE       0.083700
     19 H4           1.4040    12.8310   -34.3880 h4         1 VPE       0.027100
     20 H5           0.6350    12.0920   -36.8380 h4         1 VPE       0.148000
     21 H6          -4.7030    14.5340   -32.4270 hc         1 VPE       0.078200
     22 H7          -6.0150    13.8190   -33.4060 hc         1 VPE       0.078200
     23 H9          -3.7510    16.6100   -34.6840 hc         1 VPE       0.020033
     24 H10         -4.8310    17.9210   -34.1990 hc         1 VPE       0.020033
     25 H11         -3.9380    17.0120   -32.9620 hc         1 VPE       0.020033
     26 H12         -2.7230    14.1630   -33.0370 hn         1 VPE       0.338500
@<TRIPOS>BOND
     1     1     6 1   
     2     1     8 2   
     3     2     3 1   
     4     2     5 1   
     5     2    16 1   
     6     2    17 1   
     7     3     4 1   
     8     3    11 1   
     9     5    10 1   
    10     5    12 1   
    11     5    18 1   
    12     6     7 2   
    13     6    19 1   
    14     7    15 1   
    15     7    20 1   
    16     8    14 1   
    17     8    15 1   
    18     9    10 1   
    19     9    13 2   
    20     9    14 1   
    21    10    21 1   
    22    10    22 1   
    23    12    23 1   
    24    12    24 1   
    25    12    25 1   
    26    14    26 1   
@<TRIPOS>SUBSTRUCTURE
     1 VPE         1 TEMP              0 ****  ****    0 ROOT
