@<TRIPOS>MOLECULE
VPF
   63    64     1     0     0
SMALL
No Charge or Current Charge


@<TRIPOS>ATOM
      1 C1          13.8280    47.3520    -0.9110 c          1 VPF       0.719000
      2 O1          14.3870    46.5910    -1.6840 o          1 VPF      -0.753000
      3 O2          13.9480    48.5670    -0.9540 o          1 VPF      -0.753000
      4 C2          12.9830    46.7460     0.2230 c3         1 VPF      -0.199400
      5 C3          13.8640    46.4760     1.4750 c3         1 VPF      -0.132400
      6 C4          13.0530    45.8800     2.6350 c          1 VPF       0.594100
      7 O3          12.3030    46.5520     3.3300 o          1 VPF      -0.663100
      8 N           13.2650    44.5400     2.8630 ns         1 VPF      -0.499900
      9 CA          12.5890    43.7280     3.9030 c3         1 VPF       0.042700
     10 C           13.4980    42.5000     4.2600 c          1 VPF       0.596100
     11 O           14.2910    42.0510     3.4400 o          1 VPF      -0.587100
     12 CB          11.1460    43.3450     3.4330 c3         1 VPF      -0.051700
     13 CG1         11.1410    42.3170     2.2780 c3         1 VPF      -0.098100
     14 CG2         10.2150    42.8930     4.5790 c3         1 VPF      -0.098100
     15 N1          13.3850    41.8870     5.5320 n          1 VPF      -0.397800
     16 CA1         14.2750    40.7360     5.9090 c5         1 VPF       0.016700
     17 C5          13.7750    39.2900     5.5700 c          1 VPF       0.565100
     18 O4          14.4300    38.2590     5.6950 o          1 VPF      -0.707100
     19 CB1         14.3650    40.8820     7.4610 c5         1 VPF      -0.077400
     20 CG          13.0030    41.5250     7.8110 c5         1 VPF      -0.094400
     21 CD          12.9180    42.6230     6.7280 c5         1 VPF       0.106000
     22 P            9.8290    38.3260     4.9240 p5         1 VPF       1.273500
     23 O1P          9.3590    39.4400     4.0540 o          1 VPF      -0.916500
     24 CA2         11.6820    38.1040     4.7250 c3         1 VPF      -0.191300
     25 CB2         12.1270    37.4580     3.3840 c3         1 VPF      -0.017100
     26 CG3         12.1670    38.3980     2.1810 ca         1 VPF      -0.021300
     27 CD2         13.3370    39.1260     1.8860 ca         1 VPF      -0.092000
     28 CE2         13.3950    39.9510     0.7480 ca         1 VPF      -0.128500
     29 CZ          12.2840    40.0510    -0.1050 ca         1 VPF      -0.148000
     30 CE1         11.1150    39.3280     0.1810 ca         1 VPF      -0.128500
     31 CD1         11.0570    38.5030     1.3190 ca         1 VPF      -0.092000
     32 N2          12.4820    39.3090     5.0820 ns         1 VPF      -0.389900
     33 H21         12.2110    47.4560     0.5440 hc         1 VPF       0.029700
     34 H22         12.5850    45.7690    -0.0780 hc         1 VPF       0.029700
     35 H31         14.6650    45.7840     1.1870 hc         1 VPF       0.055700
     36 H32         14.2990    47.4270     1.8050 hc         1 VPF       0.055700
     37 H           13.9250    44.0710     2.2520 hn         1 VPF       0.334500
     38 HA          12.5100    44.3550     4.7990 h1         1 VPF       0.063700
     39 HB          10.6890    44.2590     3.0340 hc         1 VPF       0.021700
     40 HG11        10.1250    42.1710     1.8940 hc         1 VPF       0.049033
     41 HG12        11.7680    42.6560     1.4450 hc         1 VPF       0.049033
     42 HG13        11.5140    41.3450     2.6180 hc         1 VPF       0.049033
     43 HG21         9.2000    42.7200     4.2020 hc         1 VPF       0.049033
     44 HG22        10.5660    41.9600     5.0330 hc         1 VPF       0.049033
     45 HG23        10.1510    43.6640     5.3550 hc         1 VPF       0.049033
     46 HA1         15.2710    40.8370     5.4590 h1         1 VPF       0.076700
     47 HB2         14.5320    39.9300     7.9790 hc         1 VPF       0.041700
     48 HB3         15.1910    41.5460     7.7410 hc         1 VPF       0.041700
     49 HG2         12.1800    40.8060     7.7210 hc         1 VPF       0.045200
     50 HG3         12.9770    41.9350     8.8260 hc         1 VPF       0.045200
     51 HD2         13.5890    43.4640     6.9520 h1         1 VPF       0.041200
     52 HD3         11.8990    43.0110     6.6340 h1         1 VPF       0.041200
     53 HA2         11.8770    37.3590     5.5060 h1         1 VPF       0.049700
     54 HB1         13.1250    37.0270     3.5270 hc         1 VPF       0.024700
     55 HB21        11.4800    36.6000     3.1670 hc         1 VPF       0.024700
     56 HD21        14.2050    39.0500     2.5370 ha         1 VPF       0.128000
     57 HE2         14.3010    40.5110     0.5310 ha         1 VPF       0.078500
     58 HZ          12.3290    40.6890    -0.9840 ha         1 VPF       0.070000
     59 HE1         10.2530    39.4050    -0.4780 ha         1 VPF       0.078500
     60 HD1         10.1500    37.9410     1.5300 ha         1 VPF       0.128000
     61 HN2         12.0380    40.2190     5.0380 hn         1 VPF       0.357500
     62 O2P          9.5500    38.6550     6.3520 o          1 VPF      -0.916500
     63 OGG          9.1330    37.0570     4.5600 o          1 VPF      -0.916500
@<TRIPOS>BOND
     1     1     2 1   
     2     1     3 1   
     3     1     4 1   
     4     4     5 1   
     5     4    33 1   
     6     4    34 1   
     7     5     6 1   
     8     5    35 1   
     9     5    36 1   
    10     6     7 2   
    11     6     8 1   
    12     8     9 1   
    13     8    37 1   
    14     9    10 1   
    15     9    12 1   
    16     9    38 1   
    17    10    11 2   
    18    10    15 1   
    19    12    13 1   
    20    12    14 1   
    21    12    39 1   
    22    13    40 1   
    23    13    41 1   
    24    13    42 1   
    25    14    43 1   
    26    14    44 1   
    27    14    45 1   
    28    15    16 1   
    29    15    21 1   
    30    16    17 1   
    31    16    19 1   
    32    16    46 1   
    33    17    18 2   
    34    17    32 1   
    35    19    20 1   
    36    19    47 1   
    37    19    48 1   
    38    20    21 1   
    39    20    49 1   
    40    20    50 1   
    41    21    51 1   
    42    21    52 1   
    43    22    23 1   
    44    22    24 1   
    45    22    62 1   
    46    22    63 1   
    47    24    25 1   
    48    24    32 1   
    49    24    53 1   
    50    25    26 1   
    51    25    54 1   
    52    25    55 1   
    53    26    27 ar  
    54    26    31 ar  
    55    27    28 ar  
    56    27    56 1   
    57    28    29 ar  
    58    28    57 1   
    59    29    30 ar  
    60    29    58 1   
    61    30    31 ar  
    62    30    59 1   
    63    31    60 1   
    64    32    61 1   
@<TRIPOS>SUBSTRUCTURE
     1 VPF         1 TEMP              0 ****  ****    0 ROOT
