@<TRIPOS>MOLECULE
VPF
   63    64     1     0     0
SMALL
abcg2


@<TRIPOS>ATOM
      1 C1          13.7030    48.4660    -0.0110 c          1 VPF       0.719000
      2 O1          13.0000    49.2020    -0.7320 o          1 VPF      -0.753000
      3 O2          14.9320    48.2770    -0.1100 o          1 VPF      -0.753000
      4 C2          12.9650    47.7540     1.1430 c3         1 VPF      -0.199400
      5 C3          13.6930    46.5440     1.7130 c3         1 VPF      -0.132400
      6 C4          12.9860    45.9650     2.9160 c          1 VPF       0.594100
      7 O3          12.7320    46.6400     3.9070 o          1 VPF      -0.663100
      8 N           12.6660    44.6600     2.8230 ns         1 VPF      -0.499900
      9 CA          12.0170    43.9170     3.8780 c3         1 VPF       0.042700
     10 C           12.7270    42.5710     3.9750 c          1 VPF       0.596100
     11 O           12.9340    41.9230     2.9510 o          1 VPF      -0.587100
     12 CB          10.4940    43.7850     3.6510 c3         1 VPF      -0.051700
     13 CG1         10.1040    43.1440     2.3240 c3         1 VPF      -0.098100
     14 CG2          9.8180    43.0740     4.8180 c3         1 VPF      -0.098100
     15 N1          13.1130    42.1360     5.1840 n          1 VPF      -0.397800
     16 CA1         13.9550    40.9450     5.3310 c5         1 VPF       0.016700
     17 C5          13.1440    39.6540     5.5480 c          1 VPF       0.565100
     18 O4          13.4030    38.9020     6.4810 o          1 VPF      -0.707100
     19 CB1         14.8160    41.2980     6.5350 c5         1 VPF      -0.077400
     20 CG          13.8470    42.0660     7.4240 c5         1 VPF      -0.094400
     21 CD          13.0620    42.9140     6.4290 c5         1 VPF       0.106000
     22 P            9.7110    38.6360     3.8360 p5         1 VPF       1.273500
     23 O1P         10.0470    39.5920     2.6790 o          1 VPF      -0.916500
     24 CA2         11.3850    38.2090     4.6010 c3         1 VPF      -0.191300
     25 CB2         12.1610    37.0520     3.9500 c3         1 VPF      -0.017100
     26 CG3         12.7110    37.3420     2.5840 ca         1 VPF      -0.021300
     27 CD2         14.0020    37.8460     2.4300 ca         1 VPF      -0.092000
     28 CE2         14.5210    38.1220     1.1700 ca         1 VPF      -0.128500
     29 CZ          13.7550    37.8880     0.0370 ca         1 VPF      -0.148000
     30 CE1         12.4670    37.3830     0.1760 ca         1 VPF      -0.128500
     31 CD1         11.9500    37.1230     1.4370 ca         1 VPF      -0.092000
     32 N2          12.1880    39.4160     4.6480 ns         1 VPF      -0.389900
     33 H21         12.8060    48.4900     1.9380 hc         1 VPF       0.029700
     34 H22         11.9660    47.4640     0.8050 hc         1 VPF       0.029700
     35 H31         13.8270    45.7870     0.9370 hc         1 VPF       0.055700
     36 H32         14.6940    46.8400     2.0330 hc         1 VPF       0.055700
     37 H           12.8950    44.1630     1.9760 hn         1 VPF       0.334500
     38 HA          12.1480    44.4940     4.7930 h1         1 VPF       0.063700
     39 HB          10.1380    44.8200     3.6400 hc         1 VPF       0.021700
     40 HG11         9.0350    43.2880     2.1580 hc         1 VPF       0.049033
     41 HG12        10.6230    43.5960     1.4780 hc         1 VPF       0.049033
     42 HG13        10.2900    42.0700     2.3180 hc         1 VPF       0.049033
     43 HG21         8.7350    43.0860     4.6890 hc         1 VPF       0.049033
     44 HG22        10.1190    42.0260     4.8940 hc         1 VPF       0.049033
     45 HG23        10.0380    43.5600     5.7690 hc         1 VPF       0.049033
     46 HA1         14.5550    40.8100     4.4270 h1         1 VPF       0.076700
     47 HB2         15.2470    40.4240     7.0160 hc         1 VPF       0.041700
     48 HB3         15.6350    41.9450     6.2140 hc         1 VPF       0.041700
     49 HG2         13.1840    41.3740     7.9460 hc         1 VPF       0.045200
     50 HG3         14.3400    42.6830     8.1730 hc         1 VPF       0.045200
     51 HD2         13.5440    43.8840     6.2900 h1         1 VPF       0.041200
     52 HD3         12.0370    43.0870     6.7530 h1         1 VPF       0.041200
     53 HA2         11.1830    37.9000     5.6300 h1         1 VPF       0.049700
     54 HB1         12.9920    36.7720     4.6060 hc         1 VPF       0.024700
     55 HB21        11.4960    36.1880     3.9070 hc         1 VPF       0.024700
     56 HD21        14.6150    38.0130     3.3090 ha         1 VPF       0.128000
     57 HE2         15.5260    38.5130     1.0760 ha         1 VPF       0.078500
     58 HZ          14.1580    38.0930    -0.9470 ha         1 VPF       0.070000
     59 HE1         11.8620    37.1980    -0.7030 ha         1 VPF       0.078500
     60 HD1         10.9360    36.7580     1.5490 ha         1 VPF       0.128000
     61 HN2         12.0780    40.0350     3.8570 hn         1 VPF       0.357500
     62 O2P          8.9560    39.3130     4.9880 o          1 VPF      -0.916500
     63 OGG          9.1210    37.2890     3.4010 o          1 VPF      -0.916500
@<TRIPOS>BOND
     1     1     2 1   
     2     1     3 1   
     3     1     4 1   
     4     4     5 1   
     5     4    33 1   
     6     4    34 1   
     7     5     6 1   
     8     5    35 1   
     9     5    36 1   
    10     6     7 2   
    11     6     8 1   
    12     8     9 1   
    13     8    37 1   
    14     9    10 1   
    15     9    12 1   
    16     9    38 1   
    17    10    11 2   
    18    10    15 1   
    19    12    13 1   
    20    12    14 1   
    21    12    39 1   
    22    13    40 1   
    23    13    41 1   
    24    13    42 1   
    25    14    43 1   
    26    14    44 1   
    27    14    45 1   
    28    15    16 1   
    29    15    21 1   
    30    16    17 1   
    31    16    19 1   
    32    16    46 1   
    33    17    18 2   
    34    17    32 1   
    35    19    20 1   
    36    19    47 1   
    37    19    48 1   
    38    20    21 1   
    39    20    49 1   
    40    20    50 1   
    41    21    51 1   
    42    21    52 1   
    43    22    23 1   
    44    22    24 1   
    45    22    62 1   
    46    22    63 1   
    47    24    25 1   
    48    24    32 1   
    49    24    53 1   
    50    25    26 1   
    51    25    54 1   
    52    25    55 1   
    53    26    27 ar  
    54    26    31 ar  
    55    27    28 ar  
    56    27    56 1   
    57    28    29 ar  
    58    28    57 1   
    59    29    30 ar  
    60    29    58 1   
    61    30    31 ar  
    62    30    59 1   
    63    31    60 1   
    64    32    61 1   
@<TRIPOS>SUBSTRUCTURE
     1 VPF         1 TEMP              0 ****  ****    0 ROOT
