@<TRIPOS>MOLECULE
VPG
   51    54     1     0     0
SMALL
bcc


@<TRIPOS>ATOM
      1 C2          30.6810   -20.8470     2.5270 ca         1 VPG       0.043400
      2 C3          30.0620   -19.7110     3.0220 ca         1 VPG      -0.123000
      3 C4          30.2820   -19.3370     4.3400 ca         1 VPG      -0.116000
      4 C5          31.1110   -20.0980     5.1510 ca         1 VPG      -0.144000
      5 C6          31.7230   -21.2320     4.6370 ca         1 VPG      -0.111000
      6 C7          31.5190   -21.6300     3.3200 ca         1 VPG      -0.113300
      7 C8          32.1960   -22.8580     2.7820 c3         1 VPG       0.282100
      8 C12         34.9180   -23.2360    -1.0990 ca         1 VPG       0.822000
      9 C15         33.6830   -25.0010    -0.7510 ca         1 VPG       0.510800
     10 C16         33.1750   -24.4840     0.4450 ca         1 VPG      -0.517500
     11 C17         32.3360   -25.5170     0.9370 cc         1 VPG       0.383800
     12 C23         29.9690   -28.1420    -2.1100 c3         1 VPG       0.137400
     13 O28         27.0610   -27.1560    -5.3300 o          1 VPG      -0.926833
     14 O29         25.5390   -26.2540    -3.4540 o          1 VPG      -0.926833
     15 C30         32.2000   -29.1670    -1.5230 c5         1 VPG       0.062100
     16 C32         33.5990   -28.5460    -1.6460 c5         1 VPG       0.073100
     17 CL1         30.3820   -21.3030     0.8810 cl         1 VPG      -0.043400
     18 N9          33.2340   -22.4880     1.8450 nu         1 VPG      -0.864900
     19 C10         33.6300   -23.1870     0.7860 ca         1 VPG       0.799200
     20 N11         34.5340   -22.6000    -0.0140 nb         1 VPG      -0.846000
     21 N14         34.5580   -24.4030    -1.5650 nb         1 VPG      -0.726000
     22 N18         32.3310   -26.5330     0.1190 nd         1 VPG      -0.504100
     23 N19         33.1460   -26.2250    -0.9060 na         1 VPG       0.001200
     24 C20         33.2760   -27.1080    -2.0450 c5         1 VPG       0.264800
     25 O21         32.0820   -27.1560    -2.7680 os         1 VPG      -0.335600
     26 C22         31.3910   -28.3850    -2.5630 c5         1 VPG       0.145100
     27 C25         27.8900   -27.2710    -2.7460 c3         1 VPG       0.012200
     28 P26         26.9500   -26.3120    -4.0540 p5         1 VPG       1.138700
     29 O27         27.6540   -24.9520    -4.1410 o          1 VPG      -0.926833
     30 O31         32.1780   -30.5370    -1.8310 oh         1 VPG      -0.584800
     31 O33         34.3010   -29.1270    -2.7110 oh         1 VPG      -0.593800
     32 H1          29.4140   -19.1240     2.3860 ha         1 VPG       0.154000
     33 H2          29.7990   -18.4500     4.7290 ha         1 VPG       0.128000
     34 H3          31.2840   -19.8090     6.1790 ha         1 VPG       0.126000
     35 H4          32.3730   -21.8270     5.2670 ha         1 VPG       0.128000
     36 H5          31.4580   -23.4800     2.2740 h1         1 VPG       0.064200
     37 H6          32.6050   -23.4450     3.6080 h1         1 VPG       0.064200
     38 H7          31.7570   -25.5620     1.8460 h4         1 VPG       0.039800
     39 H8          29.9810   -27.5610    -1.1740 h1         1 VPG      -0.007300
     40 H9          29.5240   -29.1210    -1.8660 h1         1 VPG      -0.007300
     41 H11         31.8080   -28.9790    -0.5180 h1         1 VPG       0.068700
     42 H12         34.1690   -28.5930    -0.7100 h1         1 VPG       0.044700
     43 H13         33.6890   -21.5960     1.9770 hn         1 VPG       0.448800
     44 H14         34.0690   -26.6770    -2.6590 h2         1 VPG       0.117700
     45 H15         31.3830   -28.9400    -3.5090 h1         1 VPG       0.090700
     46 H16         27.8470   -26.7300    -1.7860 h1         1 VPG      -0.021800
     47 H17         27.4000   -28.2420    -2.5630 h1         1 VPG      -0.021800
     48 H19         32.3680   -31.0380    -1.0320 ho         1 VPG       0.392000
     49 H20         34.0250   -30.0510    -2.7650 ho         1 VPG       0.420000
     50 O24         29.2470   -27.4880    -3.1070 os         1 VPG      -0.338600
     51 CL13        36.0830   -22.3840    -2.0620 cl         1 VPG      -0.163000
@<TRIPOS>BOND
     1     1     2 ar  
     2     1     6 ar  
     3     1    17 1   
     4     2     3 ar  
     5     2    32 1   
     6     3     4 ar  
     7     3    33 1   
     8     4     5 ar  
     9     4    34 1   
    10     5     6 ar  
    11     5    35 1   
    12     6     7 1   
    13     7    18 1   
    14     7    36 1   
    15     7    37 1   
    16     8    20 ar  
    17     8    21 ar  
    18     8    51 1   
    19     9    10 ar  
    20     9    21 ar  
    21     9    23 1   
    22    10    11 1   
    23    10    19 ar  
    24    11    22 2   
    25    11    38 1   
    26    12    26 1   
    27    12    39 1   
    28    12    40 1   
    29    12    50 1   
    30    13    28 1   
    31    14    28 1   
    32    15    16 1   
    33    15    26 1   
    34    15    30 1   
    35    15    41 1   
    36    16    24 1   
    37    16    31 1   
    38    16    42 1   
    39    18    19 1   
    40    18    43 1   
    41    19    20 ar  
    42    22    23 1   
    43    23    24 1   
    44    24    25 1   
    45    24    44 1   
    46    25    26 1   
    47    26    45 1   
    48    27    28 1   
    49    27    46 1   
    50    27    47 1   
    51    27    50 1   
    52    28    29 1   
    53    30    48 1   
    54    31    49 1   
@<TRIPOS>SUBSTRUCTURE
     1 VPG         1 TEMP              0 ****  ****    0 ROOT
