@<TRIPOS>MOLECULE
VPG
   51    54     1     0     0
SMALL
No Charge or Current Charge


@<TRIPOS>ATOM
      1 C2          30.0720   -21.3590     3.4700 ca         1 VPG       0.135000
      2 C3          29.6890   -20.2550     4.2520 ca         1 VPG      -0.105000
      3 C4          30.6580   -19.4890     4.9210 ca         1 VPG      -0.098000
      4 C5          32.0160   -19.8270     4.8060 ca         1 VPG      -0.126000
      5 C6          32.4040   -20.9290     4.0250 ca         1 VPG      -0.093000
      6 C7          31.4380   -21.7060     3.3520 ca         1 VPG      -0.113300
      7 C8          31.8900   -22.8960     2.5150 c3         1 VPG       0.282100
      8 C12         32.9140   -23.2740    -2.2110 ca         1 VPG       0.296000
      9 C15         33.1300   -25.2400    -1.0840 ca         1 VPG       0.182500
     10 C16         32.7730   -24.5960     0.0650 ca         1 VPG      -0.386900
     11 C17         32.7960   -25.5780     1.1100 cc         1 VPG       0.383800
     12 C23         30.4670   -27.7020    -1.9610 c3         1 VPG       0.160600
     13 O28         27.5300   -26.7570    -5.3980 o          1 VPG      -0.926833
     14 O29         26.8590   -24.7290    -4.2210 o          1 VPG      -0.926833
     15 C30         32.2120   -29.4610    -1.1140 c5         1 VPG       0.085300
     16 C32         33.7360   -29.1260    -1.0480 c5         1 VPG       0.096300
     17 Cl1         28.8140   -22.2800     2.6450 cl         1 VPG      -0.135000
     18 N9          32.1030   -22.4750     1.1280 nu         1 VPG      -0.920100
     19 C10         32.4770   -23.2340     0.0370 ca         1 VPG       0.470900
     20 N11         32.5490   -22.5600    -1.1200 nb         1 VPG      -0.320000
     21 N14         33.2150   -24.5920    -2.2590 nb         1 VPG      -0.200000
     22 N18         33.1490   -26.7820     0.6470 nd         1 VPG      -0.504100
     23 N19         33.3480   -26.5580    -0.7230 na         1 VPG      -0.028100
     24 C20         33.7440   -27.6680    -1.6200 c5         1 VPG       0.317300
     25 O21         32.8230   -27.7690    -2.7300 os         1 VPG      -0.382000
     26 C22         31.6950   -28.5870    -2.3210 c5         1 VPG       0.168300
     27 C25         28.7890   -26.2630    -2.9720 c3         1 VPG      -0.122400
     28 P26         28.0140   -25.6110    -4.5700 p5         1 VPG       1.296500
     29 O27         29.0240   -24.8240    -5.3410 o          1 VPG      -0.926833
     30 O31         32.0260   -30.8800    -1.3080 oh         1 VPG      -0.707000
     31 O33         34.4460   -30.0700    -1.8610 oh         1 VPG      -0.716000
     32 H1          28.6370   -19.9930     4.3380 ha         1 VPG       0.136000
     33 H2          30.3570   -18.6360     5.5250 ha         1 VPG       0.110000
     34 H3          32.7680   -19.2340     5.3210 ha         1 VPG       0.108000
     35 H4          33.4600   -21.1790     3.9420 ha         1 VPG       0.110000
     36 H5          31.1390   -23.6970     2.5660 h1         1 VPG       0.064200
     37 H6          32.8240   -23.2970     2.9350 h1         1 VPG       0.064200
     38 H7          32.5870   -25.5070     2.1680 h4         1 VPG       0.039800
     39 H8          30.7590   -26.9120    -1.2570 h1         1 VPG      -0.007300
     40 H9          29.7110   -28.3290    -1.4700 h1         1 VPG      -0.007300
     41 H11         31.7270   -29.1370    -0.1810 h1         1 VPG       0.068700
     42 H12         34.1130   -29.1630    -0.0170 h1         1 VPG       0.044700
     43 H13         31.9310   -21.4930     0.9160 hn         1 VPG       0.504000
     44 H14         34.7450   -27.4020    -1.9800 h2         1 VPG       0.117700
     45 H15         31.4140   -29.2260    -3.1680 h1         1 VPG       0.090700
     46 H16         29.0890   -25.3980    -2.3650 h1         1 VPG      -0.021800
     47 H17         28.0030   -26.7950    -2.4200 h1         1 VPG      -0.021800
     48 H19         31.0910   -31.0950    -1.0770 ho         1 VPG       0.491000
     49 H20         33.7750   -30.7990    -1.9410 ho         1 VPG       0.519000
     50 O24         29.9270   -27.1390    -3.1710 os         1 VPG      -0.385000
     51 Cl13        33.0150   -22.3910    -3.7250 cl         1 VPG      -0.163000
@<TRIPOS>BOND
     1     1     2 ar  
     2     1     6 ar  
     3     1    17 1   
     4     2     3 ar  
     5     2    32 1   
     6     3     4 ar  
     7     3    33 1   
     8     4     5 ar  
     9     4    34 1   
    10     5     6 ar  
    11     5    35 1   
    12     6     7 1   
    13     7    18 1   
    14     7    36 1   
    15     7    37 1   
    16     8    20 ar  
    17     8    21 ar  
    18     8    51 1   
    19     9    10 ar  
    20     9    21 ar  
    21     9    23 1   
    22    10    11 1   
    23    10    19 ar  
    24    11    22 2   
    25    11    38 1   
    26    12    26 1   
    27    12    39 1   
    28    12    40 1   
    29    12    50 1   
    30    13    28 1   
    31    14    28 1   
    32    15    16 1   
    33    15    26 1   
    34    15    30 1   
    35    15    41 1   
    36    16    24 1   
    37    16    31 1   
    38    16    42 1   
    39    18    19 1   
    40    18    43 1   
    41    19    20 ar  
    42    22    23 1   
    43    23    24 1   
    44    24    25 1   
    45    24    44 1   
    46    25    26 1   
    47    26    45 1   
    48    27    28 1   
    49    27    46 1   
    50    27    47 1   
    51    27    50 1   
    52    28    29 1   
    53    30    48 1   
    54    31    49 1   
@<TRIPOS>SUBSTRUCTURE
     1 VPG         1 TEMP              0 ****  ****    0 ROOT
