@<TRIPOS>MOLECULE
VPH
   28    28     1     0     0
SMALL
No Charge or Current Charge


@<TRIPOS>ATOM
      1 C5          24.8360    40.5120    32.5800 c6         1 VPH       0.137300
      2 C4          24.0310    40.4970    31.2400 c6         1 VPH       0.148300
      3 C3          23.0900    39.2500    31.2360 c6         1 VPH       0.179300
      4 C2          22.2140    39.1930    32.5150 c6         1 VPH      -0.139400
      5 C1          23.0830    39.3350    33.8000 c6         1 VPH       0.116300
      6 O5          23.9330    40.5130    33.7170 os         1 VPH      -0.415000
      7 C6          25.7950    41.7420    32.6920 c3         1 VPH       0.166600
      8 O6          26.5850    41.7380    33.8990 oh         1 VPH      -0.714000
      9 O4          23.2370    41.6870    31.0560 oh         1 VPH      -0.693000
     10 O3          22.2460    39.2820    30.0750 oh         1 VPH      -0.644000
     11 C7          22.2680    39.2670    35.1310 c          1 VPH       0.600100
     12 O8          21.3020    38.2890    35.1340 os         1 VPH      -0.411100
     13 C9          20.5110    38.1150    36.3240 c3         1 VPH       0.147900
     14 O7          22.5270    39.9570    36.1120 o          1 VPH      -0.494000
     15 H1          25.4560    39.6050    32.6270 h1         1 VPH       0.053700
     16 H2          24.7430    40.3920    30.4080 h1         1 VPH       0.047700
     17 H3          23.7220    38.3500    31.2100 h1         1 VPH       0.029700
     18 H4          21.4610    39.9930    32.4970 hc         1 VPH       0.076200
     19 H5          21.6610    38.2440    32.5360 hc         1 VPH       0.076200
     20 H6          23.7410    38.4550    33.8490 h1         1 VPH       0.061700
     21 H7          26.4550    41.7400    31.8130 h1         1 VPH       0.033700
     22 H8          25.1920    42.6590    32.6430 h1         1 VPH       0.033700
     23 H9          27.0860    42.5870    33.9170 ho         1 VPH       0.505000
     24 H10         22.4900    41.3840    30.4870 ho         1 VPH       0.500000
     25 H11         21.8200    38.3990    30.0090 ho         1 VPH       0.444000
     26 H12         19.7810    37.3080    36.1820 h1         1 VPH       0.051033
     27 H13         21.1450    37.8520    37.1810 h1         1 VPH       0.051033
     28 H14         19.9600    39.0330    36.5670 h1         1 VPH       0.051033
@<TRIPOS>BOND
     1     1     2 1   
     2     1     6 1   
     3     1     7 1   
     4     1    15 1   
     5     2     3 1   
     6     2     9 1   
     7     2    16 1   
     8     3     4 1   
     9     3    10 1   
    10     3    17 1   
    11     4     5 1   
    12     4    18 1   
    13     4    19 1   
    14     5     6 1   
    15     5    11 1   
    16     5    20 1   
    17     7     8 1   
    18     7    21 1   
    19     7    22 1   
    20     8    23 1   
    21     9    24 1   
    22    10    25 1   
    23    11    12 1   
    24    11    14 2   
    25    12    13 1   
    26    13    26 1   
    27    13    27 1   
    28    13    28 1   
@<TRIPOS>SUBSTRUCTURE
     1 VPH         1 TEMP              0 ****  ****    0 ROOT
