@<TRIPOS>MOLECULE
VPH
   28    28     1     0     0
SMALL
abcg2


@<TRIPOS>ATOM
      1 C5          24.5070    40.5940    32.5860 c6         1 VPH       0.137300
      2 C4          23.8030    40.3090    31.2500 c6         1 VPH       0.148300
      3 C3          23.4170    38.8360    31.2200 c6         1 VPH       0.179300
      4 C2          22.5670    38.4770    32.4350 c6         1 VPH      -0.139400
      5 C1          23.3190    38.8830    33.7110 c6         1 VPH       0.116300
      6 O5          23.6640    40.2550    33.6890 os         1 VPH      -0.415000
      7 C6          24.9000    42.0460    32.7330 c3         1 VPH       0.166600
      8 O6          25.7760    42.1760    33.8520 oh         1 VPH      -0.714000
      9 O4          22.6270    41.1020    31.0900 oh         1 VPH      -0.693000
     10 O3          22.7490    38.5560    29.9940 oh         1 VPH      -0.644000
     11 C7          22.4640    38.5680    34.9230 c          1 VPH       0.600100
     12 O8          21.7970    39.6170    35.3900 os         1 VPH      -0.411100
     13 C9          20.9250    39.3770    36.5170 c3         1 VPH       0.147900
     14 O7          22.3760    37.4460    35.3750 o          1 VPH      -0.494000
     15 H1          25.4180    39.9800    32.6260 h1         1 VPH       0.053700
     16 H2          24.5040    40.5070    30.4340 h1         1 VPH       0.047700
     17 H3          24.3530    38.2670    31.2680 h1         1 VPH       0.029700
     18 H4          21.6140    39.0080    32.3890 hc         1 VPH       0.076200
     19 H5          22.3690    37.4040    32.4520 hc         1 VPH       0.076200
     20 H6          24.2260    38.2720    33.8040 h1         1 VPH       0.061700
     21 H7          25.3980    42.3660    31.8110 h1         1 VPH       0.033700
     22 H8          24.0010    42.6540    32.8720 h1         1 VPH       0.033700
     23 H9          25.9500    43.1150    33.9890 ho         1 VPH       0.505000
     24 H10         22.8800    41.9630    30.7370 ho         1 VPH       0.500000
     25 H11         22.6300    37.6000    29.9290 ho         1 VPH       0.444000
     26 H12         20.4830    40.3410    36.7490 h1         1 VPH       0.051033
     27 H13         20.1560    38.6550    36.2480 h1         1 VPH       0.051033
     28 H14         21.5020    39.0060    37.3630 h1         1 VPH       0.051033
@<TRIPOS>BOND
     1     1     2 1   
     2     1     6 1   
     3     1     7 1   
     4     1    15 1   
     5     2     3 1   
     6     2     9 1   
     7     2    16 1   
     8     3     4 1   
     9     3    10 1   
    10     3    17 1   
    11     4     5 1   
    12     4    18 1   
    13     4    19 1   
    14     5     6 1   
    15     5    11 1   
    16     5    20 1   
    17     7     8 1   
    18     7    21 1   
    19     7    22 1   
    20     8    23 1   
    21     9    24 1   
    22    10    25 1   
    23    11    12 1   
    24    11    14 2   
    25    12    13 1   
    26    13    26 1   
    27    13    27 1   
    28    13    28 1   
@<TRIPOS>SUBSTRUCTURE
     1 VPH         1 TEMP              0 ****  ****    0 ROOT
