@<TRIPOS>MOLECULE
VPK
   22    22     1     0     0
SMALL
abcg2


@<TRIPOS>ATOM
      1 N1          25.2300     5.4960    33.0240 nb         1 VPK      -0.643000
      2 C7          26.3870     4.9580    32.6280 ca         1 VPK       0.314900
      3 O1          29.1660     4.0650    32.7160 o          1 VPK      -0.519000
      4 C1          31.1380     2.8130    31.3670 c3         1 VPK       0.184600
      5 C5          24.1930     4.6900    31.0300 ca         1 VPK      -0.133000
      6 C6          24.1560     5.3660    32.2440 ca         1 VPK       0.306900
      7 C4          25.3870     4.1300    30.6140 ca         1 VPK      -0.133000
      8 C3          26.5200     4.2580    31.4220 ca         1 VPK      -0.057000
      9 C2          28.9150     3.6200    31.6130 c          1 VPK       0.646100
     10 O           29.8010     2.9780    30.8300 os         1 VPK      -0.472100
     11 C           31.9450     2.0500    30.3440 c3         1 VPK      -0.100100
     12 N           27.7120     3.6860    30.9700 ns         1 VPK      -0.138000
     13 H1          27.2370     5.0820    33.2810 h4         1 VPK       0.055100
     14 H2          31.0680     2.2730    32.3120 h1         1 VPK       0.053700
     15 H3          31.5580     3.8000    31.5610 h1         1 VPK       0.053700
     16 H4          23.3020     4.6050    30.4220 ha         1 VPK       0.124000
     17 H5          23.2360     5.8170    32.5990 h4         1 VPK       0.023100
     18 H6          25.4520     3.5950    29.6740 ha         1 VPK       0.117000
     19 H7          32.9600     1.9110    30.7180 hc         1 VPK       0.050033
     20 H8          31.5090     1.0670    30.1570 hc         1 VPK       0.050033
     21 H9          31.9980     2.5970    29.4010 hc         1 VPK       0.050033
     22 H10         27.6810     3.2410    30.0640 hn         1 VPK       0.166000
@<TRIPOS>BOND
     1     1     2 ar  
     2     1     6 ar  
     3     2     8 ar  
     4     2    13 1   
     5     3     9 2   
     6     4    10 1   
     7     4    11 1   
     8     4    14 1   
     9     4    15 1   
    10     5     6 ar  
    11     5     7 ar  
    12     5    16 1   
    13     6    17 1   
    14     7     8 ar  
    15     7    18 1   
    16     8    12 1   
    17     9    10 1   
    18     9    12 1   
    19    11    19 1   
    20    11    20 1   
    21    11    21 1   
    22    12    22 1   
@<TRIPOS>SUBSTRUCTURE
     1 VPK         1 TEMP              0 ****  ****    0 ROOT
