@<TRIPOS>MOLECULE
VPK
   22    22     1     0     0
SMALL
No Charge or Current Charge


@<TRIPOS>ATOM
      1 N1          25.1230     5.5150    33.0530 nb         1 VPK      -0.643000
      2 C7          26.3070     4.9660    32.6830 ca         1 VPK       0.314900
      3 O1          29.2440     4.1350    32.7700 o          1 VPK      -0.519000
      4 C1          31.1920     2.8060    31.3550 c3         1 VPK       0.184600
      5 C5          24.1630     4.7070    30.9810 ca         1 VPK      -0.133000
      6 C6          24.0730     5.3830    32.2100 ca         1 VPK       0.306900
      7 C4          25.3890     4.1380    30.5980 ca         1 VPK      -0.133000
      8 C3          26.4920     4.2660    31.4630 ca         1 VPK      -0.057000
      9 C2          28.9640     3.6450    31.6850 c          1 VPK       0.646100
     10 O           29.8410     2.9620    30.8880 os         1 VPK      -0.472100
     11 C           31.9590     2.0120    30.2860 c3         1 VPK      -0.100100
     12 N           27.7290     3.6870    31.0660 ns         1 VPK      -0.138000
     13 H1          27.1180     5.0990    33.3950 h4         1 VPK       0.055100
     14 H2          31.2180     2.2580    32.3070 h1         1 VPK       0.053700
     15 H3          31.6730     3.7830    31.5020 h1         1 VPK       0.053700
     16 H4          23.2890     4.6290    30.3400 ha         1 VPK       0.124000
     17 H5          23.1330     5.8320    32.5290 h4         1 VPK       0.023100
     18 H6          25.4780     3.6110    29.6500 ha         1 VPK       0.117000
     19 H7          33.0000     1.8660    30.5960 hc         1 VPK       0.050033
     20 H8          31.5020     1.0270    30.1350 hc         1 VPK       0.050033
     21 H9          31.9570     2.5510    29.3300 hc         1 VPK       0.050033
     22 H10         27.7060     3.2200    30.1690 hn         1 VPK       0.166000
@<TRIPOS>BOND
     1     1     2 ar  
     2     1     6 ar  
     3     2     8 ar  
     4     2    13 1   
     5     3     9 2   
     6     4    10 1   
     7     4    11 1   
     8     4    14 1   
     9     4    15 1   
    10     5     6 ar  
    11     5     7 ar  
    12     5    16 1   
    13     6    17 1   
    14     7     8 ar  
    15     7    18 1   
    16     8    12 1   
    17     9    10 1   
    18     9    12 1   
    19    11    19 1   
    20    11    20 1   
    21    11    21 1   
    22    12    22 1   
@<TRIPOS>SUBSTRUCTURE
     1 VPK         1 TEMP              0 ****  ****    0 ROOT
