@<TRIPOS>MOLECULE
VPL
   26    26     1     0     0
SMALL
abcg2


@<TRIPOS>ATOM
      1 C7          22.8180    38.5500    34.9940 c          1 VPL       0.613100
      2 C5          24.9470    40.4590    32.7050 c6         1 VPL       0.133300
      3 C4          24.2290    40.2660    31.3640 c6         1 VPL       0.149300
      4 C3          23.7700    38.8170    31.2790 c6         1 VPL       0.180300
      5 C2          22.9150    38.4630    32.4920 c6         1 VPL      -0.145400
      6 C1          23.6940    38.7870    33.7690 c6         1 VPL       0.092300
      7 O5          24.1060    40.1250    33.7880 os         1 VPL      -0.396000
      8 O4          23.1070    41.1070    31.2320 oh         1 VPL      -0.687000
      9 O3          23.0980    38.6200    30.0620 oh         1 VPL      -0.637000
     10 N1          22.7120    37.2590    35.3450 nt         1 VPL      -0.619000
     11 O7          22.2390    39.4550    35.5670 o          1 VPL      -0.562100
     12 H1          25.8310    39.7990    32.6960 h1         1 VPL       0.045700
     13 H2          24.9600    40.4490    30.5630 h1         1 VPL       0.043700
     14 H3          24.6840    38.2030    31.3250 h1         1 VPL       0.022700
     15 H4          21.9770    39.0240    32.4730 hc         1 VPL       0.068700
     16 H5          22.6650    37.3990    32.4740 hc         1 VPL       0.068700
     17 H6          24.5700    38.1200    33.8180 h1         1 VPL       0.032700
     18 H9          26.4900    42.8540    34.1900 ho         1 VPL       0.506000
     19 H10         23.3980    41.9690    30.9220 ho         1 VPL       0.501000
     20 H11         22.8810    37.6850    29.9880 ho         1 VPL       0.443000
     21 H12         22.1020    36.9840    36.0980 hn         1 VPL       0.313000
     22 H13         23.2210    36.5300    34.8750 hn         1 VPL       0.313000
     23 C6          25.4250    41.8810    32.9000 c3         1 VPL       0.170600
     24 O6          26.2590    41.9340    34.0330 oh         1 VPL      -0.707000
     25 H7          25.9590    42.1850    31.9890 h1         1 VPL       0.028200
     26 H8          24.5600    42.5480    33.0050 h1         1 VPL       0.028200
@<TRIPOS>BOND
     1     1     6 1   
     2     1    10 1   
     3     1    11 2   
     4     2     3 1   
     5     2     7 1   
     6     2    12 1   
     7     2    23 1   
     8     3     4 1   
     9     3     8 1   
    10     3    13 1   
    11     4     5 1   
    12     4     9 1   
    13     4    14 1   
    14     5     6 1   
    15     5    15 1   
    16     5    16 1   
    17     6     7 1   
    18     6    17 1   
    19     8    19 1   
    20     9    20 1   
    21    10    21 1   
    22    10    22 1   
    23    18    24 1   
    24    23    24 1   
    25    23    25 1   
    26    23    26 1   
@<TRIPOS>SUBSTRUCTURE
     1 VPL         1 TEMP              0 ****  ****    0 ROOT
