@<TRIPOS>MOLECULE
VPL
   26    26     1     0     0
SMALL
No Charge or Current Charge


@<TRIPOS>ATOM
      1 C7          22.9860    38.4060    35.1520 c          1 VPL       0.613100
      2 C5          25.0470    40.5540    32.7440 c6         1 VPL       0.133300
      3 C4          24.3290    40.3440    31.3730 c6         1 VPL       0.149300
      4 C3          23.8620    38.8580    31.2770 c6         1 VPL       0.180300
      5 C2          23.0210    38.4400    32.5130 c6         1 VPL      -0.145400
      6 C1          23.7530    38.8040    33.8430 c6         1 VPL       0.092300
      7 O5          24.1650    40.1980    33.8400 os         1 VPL      -0.396000
      8 O4          23.1880    41.2110    31.2050 oh         1 VPL      -0.687000
      9 O3          23.0890    38.6670    30.0830 oh         1 VPL      -0.637000
     10 N1          22.2410    37.2730    35.1240 nt         1 VPL      -0.619000
     11 O7          23.0300    39.0630    36.1820 o          1 VPL      -0.562100
     12 H1          25.9310    39.9000    32.7820 h1         1 VPL       0.045700
     13 H2          25.0570    40.5280    30.5680 h1         1 VPL       0.043700
     14 H3          24.7600    38.2240    31.2410 h1         1 VPL       0.022700
     15 H4          22.0410    38.9370    32.4920 hc         1 VPL       0.068700
     16 H5          22.8290    37.3600    32.4640 hc         1 VPL       0.068700
     17 H6          24.6690    38.1960    33.8780 h1         1 VPL       0.032700
     18 H9          26.4470    43.1810    34.2560 ho         1 VPL       0.506000
     19 H10         22.5980    40.7050    30.5970 ho         1 VPL       0.501000
     20 H11         22.9900    37.6970    29.9610 ho         1 VPL       0.443000
     21 H12         21.7370    36.9950    35.9530 hn         1 VPL       0.313000
     22 H13         22.1940    36.7140    34.2850 hn         1 VPL       0.313000
     23 C6          25.5420    42.0240    32.9460 c3         1 VPL       0.170600
     24 O6          26.2530    42.2180    34.1850 oh         1 VPL      -0.707000
     25 H7          26.1910    42.2840    32.0990 h1         1 VPL       0.028200
     26 H8          24.6710    42.6920    32.9060 h1         1 VPL       0.028200
@<TRIPOS>BOND
     1     1     6 1   
     2     1    10 1   
     3     1    11 2   
     4     2     3 1   
     5     2     7 1   
     6     2    12 1   
     7     2    23 1   
     8     3     4 1   
     9     3     8 1   
    10     3    13 1   
    11     4     5 1   
    12     4     9 1   
    13     4    14 1   
    14     5     6 1   
    15     5    15 1   
    16     5    16 1   
    17     6     7 1   
    18     6    17 1   
    19     8    19 1   
    20     9    20 1   
    21    10    21 1   
    22    10    22 1   
    23    18    24 1   
    24    23    24 1   
    25    23    25 1   
    26    23    26 1   
@<TRIPOS>SUBSTRUCTURE
     1 VPL         1 TEMP              0 ****  ****    0 ROOT
