@<TRIPOS>MOLECULE
VPM
   22    21     1     0     0
SMALL
bcc


@<TRIPOS>ATOM
      1 CAA          2.8500    -0.1410    -0.8080 c3         1 VPM      -0.066600
      2 CAK          1.6570    -0.9630    -0.3240 c3         1 VPM      -0.066700
      3 CAB          1.9890    -1.6100     1.0180 c3         1 VPM      -0.066600
      4 CAL          0.3270    -0.1580    -0.3590 c3         1 VPM       0.050800
      5 CAJ          0.4750     1.1390     0.4690 c          1 VPM       0.979600
      6 OAF          0.5030     0.9950     1.7100 o          1 VPM      -0.852300
      7 OAD          0.6220     2.2090    -0.1460 o          1 VPM      -0.852300
      8 OAG          0.0750     0.2110    -1.7100 oh         1 VPM      -0.564800
      9 CAH         -0.8300    -1.0240     0.1420 c3         1 VPM      -0.205400
     10 CAI         -2.2110    -0.4210    -0.1490 c          1 VPM       0.930600
     11 OAE         -2.4060     0.7540     0.2230 o          1 VPM      -0.860300
     12 OAC         -3.0490    -1.1570    -0.7140 o          1 VPM      -0.860300
     13 H1           3.1070     0.6470    -0.0970 hc         1 VPM       0.015033
     14 H2           3.7300    -0.7780    -0.9160 hc         1 VPM       0.015033
     15 H3           2.6580     0.3290    -1.7720 hc         1 VPM       0.015033
     16 H4           1.5150    -1.7840    -1.0420 hc         1 VPM      -0.012300
     17 H5           2.1710    -0.8580     1.7830 hc         1 VPM       0.015033
     18 H6           1.1870    -2.2580     1.3720 hc         1 VPM       0.015033
     19 H7           2.8860    -2.2250     0.9230 hc         1 VPM       0.015033
     20 H9          -0.0120    -0.6070    -2.2110 ho         1 VPM       0.341000
     21 H10         -0.7580    -2.0220    -0.3070 hc         1 VPM       0.007700
     22 H11         -0.7310    -1.1630     1.2210 hc         1 VPM       0.007700
@<TRIPOS>BOND
     1     1     2 1   
     2     1    13 1   
     3     1    14 1   
     4     1    15 1   
     5     2     3 1   
     6     2     4 1   
     7     2    16 1   
     8     3    17 1   
     9     3    18 1   
    10     3    19 1   
    11     4     5 1   
    12     4     8 1   
    13     4     9 1   
    14     5     6 1   
    15     5     7 1   
    16     8    20 1   
    17     9    10 1   
    18     9    21 1   
    19     9    22 1   
    20    10    11 1   
    21    10    12 1   
@<TRIPOS>SUBSTRUCTURE
     1 VPM         1 TEMP              0 ****  ****    0 ROOT
