@<TRIPOS>MOLECULE
VPM
   22    21     1     0     0
SMALL
No Charge or Current Charge


@<TRIPOS>ATOM
      1 CAA          2.9380    -0.1740    -0.8190 c3         1 VPM      -0.066600
      2 CAK          1.7440    -1.0150    -0.2930 c3         1 VPM      -0.066700
      3 CAB          2.0830    -1.5820     1.1130 c3         1 VPM      -0.066600
      4 CAL          0.3630    -0.2500    -0.3980 c3         1 VPM       0.074000
      5 CAJ          0.4200     1.1570     0.3760 c          1 VPM       0.769000
      6 OAF          0.4520     1.1700     1.6020 o          1 VPM      -0.747000
      7 OAD          0.3910     2.1990    -0.2740 o          1 VPM      -0.747000
      8 OAG          0.0990    -0.0920    -1.8210 oh         1 VPM      -0.627000
      9 CAH         -0.8290    -1.1170     0.1290 c3         1 VPM      -0.205400
     10 CAI         -2.1750    -0.4300    -0.1710 c          1 VPM       0.720000
     11 OAE         -2.6900     0.2580     0.6960 o          1 VPM      -0.755000
     12 OAC         -2.6310    -0.5460    -1.2990 o          1 VPM      -0.755000
     13 H1           3.1110     0.7040    -0.1860 hc         1 VPM       0.015033
     14 H2           3.8570    -0.7720    -0.8230 hc         1 VPM       0.015033
     15 H3           2.7640     0.1700    -1.8450 hc         1 VPM       0.015033
     16 H4           1.6760    -1.8920    -0.9500 hc         1 VPM      -0.012300
     17 H5           2.1910    -0.7840     1.8550 hc         1 VPM       0.015033
     18 H6           1.3180    -2.2840     1.4610 hc         1 VPM       0.015033
     19 H7           3.0310    -2.1320     1.0810 hc         1 VPM       0.015033
     20 H9          -0.8800    -0.1630    -1.9150 ho         1 VPM       0.380000
     21 H10         -0.7700    -2.0640    -0.4230 hc         1 VPM       0.007700
     22 H11         -0.7070    -1.2430     1.2110 hc         1 VPM       0.007700
@<TRIPOS>BOND
     1     1     2 1   
     2     1    13 1   
     3     1    14 1   
     4     1    15 1   
     5     2     3 1   
     6     2     4 1   
     7     2    16 1   
     8     3    17 1   
     9     3    18 1   
    10     3    19 1   
    11     4     5 1   
    12     4     8 1   
    13     4     9 1   
    14     5     6 1   
    15     5     7 1   
    16     8    20 1   
    17     9    10 1   
    18     9    21 1   
    19     9    22 1   
    20    10    11 1   
    21    10    12 1   
@<TRIPOS>SUBSTRUCTURE
     1 VPM         1 TEMP              0 ****  ****    0 ROOT
