@<TRIPOS>MOLECULE
VPQ
   27    27     1     0     0
SMALL
No Charge or Current Charge


@<TRIPOS>ATOM
      1 O7          22.3110    39.7290    36.1700 o          1 VPQ      -0.558100
      2 C5          24.2500    41.1040    32.6550 c6         1 VPQ       0.140300
      3 C4          23.7890    40.4650    31.3060 c6         1 VPQ       0.153300
      4 C3          23.6470    38.9160    31.4720 c6         1 VPQ       0.182300
      5 C2          22.7150    38.5580    32.6700 c6         1 VPQ       0.116300
      6 C1          23.2490    39.2900    33.9450 c6         1 VPQ       0.056300
      7 O5          23.3430    40.7260    33.7250 os         1 VPQ      -0.397000
      8 O4          24.7090    40.7590    30.2290 oh         1 VPQ      -0.721000
      9 O3          23.1290    38.3310    30.2660 oh         1 VPQ      -0.627000
     10 C7          22.5150    38.9240    35.2740 c          1 VPQ       0.598100
     11 N1          22.1010    37.6420    35.4310 nt         1 VPQ      -0.620000
     12 O1          21.3570    38.9400    32.3480 oh         1 VPQ      -0.684000
     13 H1          25.2560    40.7330    32.9040 h1         1 VPQ       0.040700
     14 H2          22.7930    40.8730    31.0730 h1         1 VPQ       0.096700
     15 H3          24.6440    38.5010    31.6810 h1         1 VPQ       0.035700
     16 H4          22.7710    37.4710    32.8260 h1         1 VPQ       0.027700
     17 H5          24.2720    38.9220    34.1130 h1         1 VPQ       0.039700
     18 H8          23.1780    44.2730    32.4710 ho         1 VPQ       0.502000
     19 H9          24.5020    40.1000    29.5230 ho         1 VPQ       0.510000
     20 H10         22.1530    38.3350    30.3970 ho         1 VPQ       0.438000
     21 H11         21.6360    37.3790    36.2890 hn         1 VPQ       0.316500
     22 H12         22.2950    36.9470    34.7250 hn         1 VPQ       0.316500
     23 H13         20.7720    38.6280    33.0780 ho         1 VPQ       0.509000
     24 C6          24.3140    42.6670    32.5990 c3         1 VPQ       0.166600
     25 O6          23.0290    43.3000    32.4240 oh         1 VPQ      -0.711000
     26 H6          24.9940    42.9590    31.7880 h1         1 VPQ       0.034700
     27 H7          24.7730    43.0130    33.5360 h1         1 VPQ       0.034700
@<TRIPOS>BOND
     1     1    10 2   
     2     2     3 1   
     3     2     7 1   
     4     2    13 1   
     5     2    24 1   
     6     3     4 1   
     7     3     8 1   
     8     3    14 1   
     9     4     5 1   
    10     4     9 1   
    11     4    15 1   
    12     5     6 1   
    13     5    12 1   
    14     5    16 1   
    15     6     7 1   
    16     6    10 1   
    17     6    17 1   
    18     8    19 1   
    19     9    20 1   
    20    10    11 1   
    21    11    21 1   
    22    11    22 1   
    23    12    23 1   
    24    18    25 1   
    25    24    25 1   
    26    24    26 1   
    27    24    27 1   
@<TRIPOS>SUBSTRUCTURE
     1 VPQ         1 TEMP              0 ****  ****    0 ROOT
