@<TRIPOS>MOLECULE
VPQ
   27    27     1     0     0
SMALL
abcg2


@<TRIPOS>ATOM
      1 O7          21.5420    39.8610    35.5640 o          1 VPQ      -0.558100
      2 C5          24.2190    40.9660    32.6330 c6         1 VPQ       0.140300
      3 C4          23.6740    40.4140    31.3030 c6         1 VPQ       0.153300
      4 C3          23.4200    38.9210    31.4340 c6         1 VPQ       0.182300
      5 C2          22.5360    38.6210    32.6490 c6         1 VPQ       0.116300
      6 C1          23.1850    39.2620    33.8920 c6         1 VPQ       0.056300
      7 O5          23.3430    40.6530    33.7150 os         1 VPQ      -0.397000
      8 O4          24.6380    40.6110    30.2690 oh         1 VPQ      -0.721000
      9 O3          22.8470    38.4490    30.2230 oh         1 VPQ      -0.627000
     10 C7          22.3320    39.0260    35.1390 c          1 VPQ       0.598100
     11 N1          22.4890    37.8100    35.6910 nt         1 VPQ      -0.620000
     12 O1          21.2350    39.1360    32.4030 oh         1 VPQ      -0.684000
     13 H1          25.1980    40.4990    32.8130 h1         1 VPQ       0.040700
     14 H2          22.7400    40.9190    31.0540 h1         1 VPQ       0.096700
     15 H3          24.3860    38.4300    31.6080 h1         1 VPQ       0.035700
     16 H4          22.4980    37.5350    32.7930 h1         1 VPQ       0.027700
     17 H5          24.1660    38.7880    34.0410 h1         1 VPQ       0.039700
     18 H8          23.3900    44.0700    32.2250 ho         1 VPQ       0.502000
     19 H9          24.5210    41.4950    29.9020 ho         1 VPQ       0.510000
     20 H10         22.7790    37.4870    30.2740 ho         1 VPQ       0.438000
     21 H11         21.9200    37.5440    36.4790 hn         1 VPQ       0.316500
     22 H12         23.1720    37.1530    35.3520 hn         1 VPQ       0.316500
     23 H13         20.6250    38.7800    33.0610 ho         1 VPQ       0.509000
     24 C6          24.4320    42.4630    32.6200 c3         1 VPQ       0.166600
     25 O6          23.2180    43.1220    32.2580 oh         1 VPQ      -0.711000
     26 H6          25.2290    42.6950    31.9080 h1         1 VPQ       0.034700
     27 H7          24.7620    42.7740    33.6160 h1         1 VPQ       0.034700
@<TRIPOS>BOND
     1     1    10 2   
     2     2     3 1   
     3     2     7 1   
     4     2    13 1   
     5     2    24 1   
     6     3     4 1   
     7     3     8 1   
     8     3    14 1   
     9     4     5 1   
    10     4     9 1   
    11     4    15 1   
    12     5     6 1   
    13     5    12 1   
    14     5    16 1   
    15     6     7 1   
    16     6    10 1   
    17     6    17 1   
    18     8    19 1   
    19     9    20 1   
    20    10    11 1   
    21    11    21 1   
    22    11    22 1   
    23    12    23 1   
    24    18    25 1   
    25    24    25 1   
    26    24    26 1   
    27    24    27 1   
@<TRIPOS>SUBSTRUCTURE
     1 VPQ         1 TEMP              0 ****  ****    0 ROOT
