@<TRIPOS>MOLECULE
VPR
   27    26     1     0     0
SMALL
No Charge or Current Charge


@<TRIPOS>ATOM
      1 C5           2.3380    -0.0060     2.8230 c3         1 VPR      -0.089100
      2 C4           1.0550     0.3880     2.0670 c3         1 VPR      -0.076900
      3 C3           1.0000    -0.1870     0.6310 c3         1 VPR      -0.068400
      4 C2          -0.2580     0.2460    -0.1770 c3         1 VPR      -0.135700
      5 C3A         -0.2670    -0.3050    -1.6320 c3         1 VPR      -0.068400
      6 C4A          0.8390     0.2680    -2.5510 c3         1 VPR      -0.076900
      7 C5A          0.7230    -0.2230    -4.0070 c3         1 VPR      -0.089100
      8 C1          -1.5620    -0.1600     0.5450 c          1 VPR       0.603100
      9 N           -2.3850     0.8490     0.9040 nt         1 VPR      -0.610000
     10 O           -1.8700    -1.3160     0.7890 o          1 VPR      -0.608100
     11 H51          2.3330     0.4210     3.8330 hc         1 VPR       0.032867
     12 H52          2.4170    -1.0960     2.9120 hc         1 VPR       0.032867
     13 H53          3.2270     0.3640     2.2990 hc         1 VPR       0.032867
     14 H41          0.1890     0.0380     2.6420 hc         1 VPR       0.037700
     15 H42          0.9900     1.4820     2.0230 hc         1 VPR       0.037700
     16 H31          1.9030     0.1380     0.1020 hc         1 VPR       0.051450
     17 H32          1.0410    -1.2820     0.6800 hc         1 VPR       0.051450
     18 H2          -0.2440     1.3410    -0.2450 hc         1 VPR       0.044700
     19 H3A1        -0.1900    -1.3990    -1.6090 hc         1 VPR       0.051450
     20 H3A2        -1.2400    -0.0720    -2.0840 hc         1 VPR       0.051450
     21 H4A1         0.7930     1.3640    -2.5400 hc         1 VPR       0.037700
     22 H4A2         1.8270    -0.0160    -2.1690 hc         1 VPR       0.037700
     23 H5A1         1.5270     0.2030    -4.6190 hc         1 VPR       0.032867
     24 H5A2         0.7980    -1.3160    -4.0550 hc         1 VPR       0.032867
     25 H5A3        -0.2370     0.0790    -4.4430 hc         1 VPR       0.032867
     26 HN1         -3.2510     0.6360     1.3770 hn         1 VPR       0.311000
     27 HN2         -2.1320     1.8040     0.7010 hn         1 VPR       0.311000
@<TRIPOS>BOND
     1     1     2 1   
     2     1    11 1   
     3     1    12 1   
     4     1    13 1   
     5     2     3 1   
     6     2    14 1   
     7     2    15 1   
     8     3     4 1   
     9     3    16 1   
    10     3    17 1   
    11     4     5 1   
    12     4     8 1   
    13     4    18 1   
    14     5     6 1   
    15     5    19 1   
    16     5    20 1   
    17     6     7 1   
    18     6    21 1   
    19     6    22 1   
    20     7    23 1   
    21     7    24 1   
    22     7    25 1   
    23     8     9 1   
    24     8    10 2   
    25     9    26 1   
    26     9    27 1   
@<TRIPOS>SUBSTRUCTURE
     1 VPR         1 TEMP              0 ****  ****    0 ROOT
