@<TRIPOS>MOLECULE
VPR
   27    26     1     0     0
SMALL
bcc


@<TRIPOS>ATOM
      1 C5           2.3150     0.0100     2.7550 c3         1 VPR      -0.089100
      2 C4           1.0200     0.3720     2.0420 c3         1 VPR      -0.076900
      3 C3           0.9760    -0.1650     0.6150 c3         1 VPR      -0.068400
      4 C2          -0.2510     0.2820    -0.1820 c3         1 VPR      -0.135700
      5 C3A         -0.2710    -0.2720    -1.6120 c3         1 VPR      -0.068400
      6 C4A          0.8620     0.2390    -2.4960 c3         1 VPR      -0.076900
      7 C5A          0.7220    -0.2370    -3.9360 c3         1 VPR      -0.089100
      8 C1          -1.5190    -0.1580     0.5290 c          1 VPR       0.670100
      9 N           -2.3530     0.8270     0.8920 nt         1 VPR      -0.677000
     10 O           -1.7600    -1.3400     0.7420 o          1 VPR      -0.608100
     11 H51          2.3210     0.3770     3.7820 hc         1 VPR       0.032867
     12 H52          2.4570    -1.0720     2.7910 hc         1 VPR       0.032867
     13 H53          3.1800     0.4380     2.2450 hc         1 VPR       0.032867
     14 H41          0.1740    -0.0160     2.6160 hc         1 VPR       0.037700
     15 H42          0.9040     1.4600     2.0250 hc         1 VPR       0.037700
     16 H31          1.8740     0.1710     0.0890 hc         1 VPR       0.051450
     17 H32          1.0190    -1.2590     0.6290 hc         1 VPR       0.051450
     18 H2          -0.2360     1.3760    -0.2420 hc         1 VPR       0.044700
     19 H3A1        -0.2480    -1.3650    -1.5800 hc         1 VPR       0.051450
     20 H3A2        -1.2220     0.0020    -2.0800 hc         1 VPR       0.051450
     21 H4A1         0.8770     1.3330    -2.4710 hc         1 VPR       0.037700
     22 H4A2         1.8270    -0.0900    -2.1050 hc         1 VPR       0.037700
     23 H5A1         1.5380     0.1320    -4.5590 hc         1 VPR       0.032867
     24 H5A2         0.7310    -1.3270    -3.9940 hc         1 VPR       0.032867
     25 H5A3        -0.2150     0.1070    -4.3790 hc         1 VPR       0.032867
     26 HN1         -3.2190     0.6210     1.3640 hn         1 VPR       0.311000
     27 HN2         -2.1410     1.7940     0.7160 hn         1 VPR       0.311000
@<TRIPOS>BOND
     1     1     2 1   
     2     1    11 1   
     3     1    12 1   
     4     1    13 1   
     5     2     3 1   
     6     2    14 1   
     7     2    15 1   
     8     3     4 1   
     9     3    16 1   
    10     3    17 1   
    11     4     5 1   
    12     4     8 1   
    13     4    18 1   
    14     5     6 1   
    15     5    19 1   
    16     5    20 1   
    17     6     7 1   
    18     6    21 1   
    19     6    22 1   
    20     7    23 1   
    21     7    24 1   
    22     7    25 1   
    23     8     9 1   
    24     8    10 2   
    25     9    26 1   
    26     9    27 1   
@<TRIPOS>SUBSTRUCTURE
     1 VPR         1 TEMP              0 ****  ****    0 ROOT
