@<TRIPOS>MOLECULE
VPS
   37    39     1     0     0
SMALL
No Charge or Current Charge


@<TRIPOS>ATOM
      1 C10         -8.4280    16.7210    18.4520 ca         1 VPS       0.450900
      2 N12         -7.8820    15.7970    19.2460 nb         1 VPS      -0.330000
      3 C13         -8.7500    15.1880    20.0780 ca         1 VPS       0.437300
      4 C15         -9.0150    13.2980    21.5730 ca         1 VPS       0.061100
      5 C17         -9.6660    12.1850    23.6320 ca         1 VPS      -0.139000
      6 C26        -14.2760    14.4510    20.8450 ca         1 VPS      -0.040000
      7 C03        -15.3460    15.3330    21.0830 ca         1 VPS      -0.065000
      8 C04        -15.2300    16.6840    20.7050 ca         1 VPS      -0.040000
      9 C05        -14.0460    17.1470    20.1000 ca         1 VPS      -0.156500
     10 C06        -12.9680    16.2750    19.8760 ca         1 VPS       0.332000
     11 C08        -10.4820    16.4230    19.2760 ca         1 VPS       0.455900
     12 C16         -8.8790    13.1340    22.9600 ca         1 VPS      -0.131000
     13 C18        -10.5850    11.3960    22.9180 ca         1 VPS      -0.082000
     14 C19        -10.7250    11.5380    21.5160 ca         1 VPS      -0.138600
     15 C23         -9.9200    12.4950    20.8520 ca         1 VPS      -0.081000
     16 C25        -13.0960    14.9210    20.2410 ca         1 VPS      -0.156500
     17 N01        -17.5380    14.4780    22.2010 n1         1 VPS      -0.486000
     18 N07        -11.8160    16.7790    19.2640 nu         1 VPS      -0.924900
     19 N09         -9.7090    17.0860    18.4120 nb         1 VPS      -0.385000
     20 N11         -7.6000    17.3590    17.6040 nv         1 VPS      -1.074900
     21 N24        -10.0670    15.4840    20.1340 nb         1 VPS      -0.336000
     22 O14         -8.2340    14.2350    20.9320 os         1 VPS      -0.339400
     23 H1          -9.5660    12.0620    24.7080 ha         1 VPS       0.093000
     24 H2         -14.3560    13.4010    21.1220 ha         1 VPS       0.138000
     25 H3         -16.0530    17.3760    20.8770 ha         1 VPS       0.138000
     26 H4         -13.9680    18.1920    19.8150 ha         1 VPS       0.141500
     27 H5          -8.1720    13.7460    23.5130 ha         1 VPS       0.102000
     28 H6         -11.1870    10.6690    23.4590 ha         1 VPS       0.131000
     29 H7          -9.9990    12.6200    19.7750 ha         1 VPS       0.142000
     30 H8         -12.2940    14.2190    20.0440 ha         1 VPS       0.141500
     31 H9         -11.9680    17.6420    18.7450 hn         1 VPS       0.503000
     32 H10         -7.9350    18.2180    17.1750 hn         1 VPS       0.503000
     33 H11         -6.5990    17.2970    17.7720 hn         1 VPS       0.503000
     34 C20        -11.7140    10.6840    20.7410 c          1 VPS       0.711600
     35 C02        -16.5530    14.8560    21.7000 cg         1 VPS       0.348000
     36 O21        -11.8080    10.8490    19.5330 o          1 VPS      -0.712500
     37 O22        -12.3830     9.8630    21.3520 o          1 VPS      -0.712500
@<TRIPOS>BOND
     1     1     2 ar  
     2     1    19 ar  
     3     1    20 1   
     4     2     3 ar  
     5     3    21 ar  
     6     3    22 1   
     7     4    12 ar  
     8     4    15 ar  
     9     4    22 1   
    10     5    12 ar  
    11     5    13 ar  
    12     5    23 1   
    13     6     7 ar  
    14     6    16 ar  
    15     6    24 1   
    16     7     8 ar  
    17     7    35 1   
    18     8     9 ar  
    19     8    25 1   
    20     9    10 ar  
    21     9    26 1   
    22    10    16 ar  
    23    10    18 1   
    24    11    18 1   
    25    11    19 ar  
    26    11    21 ar  
    27    12    27 1   
    28    13    14 ar  
    29    13    28 1   
    30    14    15 ar  
    31    14    34 1   
    32    15    29 1   
    33    16    30 1   
    34    17    35 3   
    35    18    31 1   
    36    20    32 1   
    37    20    33 1   
    38    34    36 1   
    39    34    37 1   
@<TRIPOS>SUBSTRUCTURE
     1 VPS         1 TEMP              0 ****  ****    0 ROOT
