@<TRIPOS>MOLECULE
VPS
   37    39     1     0     0
SMALL
bcc


@<TRIPOS>ATOM
      1 C10         -8.3510    16.8220    18.5890 ca         1 VPS       0.976900
      2 N12         -7.8520    15.7250    19.1830 nb         1 VPS      -0.856000
      3 C13         -8.7390    15.0520    19.8760 ca         1 VPS       0.963300
      4 C15         -9.1370    13.2130    21.2550 ca         1 VPS       0.061100
      5 C17         -9.9090    12.5610    23.4130 ca         1 VPS      -0.157000
      6 C26        -13.9330    14.3430    21.1140 ca         1 VPS      -0.058000
      7 C03        -15.1190    15.0740    21.1490 ca         1 VPS      -0.065000
      8 C04        -15.1420    16.3670    20.6220 ca         1 VPS      -0.058000
      9 C05        -13.9990    16.9100    20.0780 ca         1 VPS      -0.174500
     10 C06        -12.8000    16.1830    20.0460 ca         1 VPS       0.193600
     11 C08        -10.4080    16.4320    19.3840 ca         1 VPS       0.981900
     12 C16         -9.0330    13.3030    22.6310 ca         1 VPS      -0.149000
     13 C18        -10.8860    11.7740    22.8200 ca         1 VPS      -0.100000
     14 C19        -10.9760    11.6780    21.4330 ca         1 VPS      -0.138600
     15 C23        -10.0740    12.3910    20.6520 ca         1 VPS      -0.099000
     16 C25        -12.7840    14.8860    20.5730 ca         1 VPS      -0.174500
     17 N01        -17.2390    14.0350    22.1800 n1         1 VPS      -0.396800
     18 N07        -11.7120    16.8090    19.4570 nu         1 VPS      -0.731300
     19 N09         -9.6260    17.2160    18.6560 nb         1 VPS      -0.911000
     20 N11         -7.5090    17.5660    17.8770 nv         1 VPS      -0.964500
     21 N24        -10.0150    15.3430    20.0330 nb         1 VPS      -0.862000
     22 O14         -8.2650    13.9610    20.4800 os         1 VPS      -0.339400
     23 H1          -9.8390    12.6190    24.4920 ha         1 VPS       0.111000
     24 H2         -13.9020    13.3350    21.5090 ha         1 VPS       0.156000
     25 H3         -16.0540    16.9480    20.6390 ha         1 VPS       0.156000
     26 H4         -14.0310    17.9130    19.6710 ha         1 VPS       0.159500
     27 H5          -8.2880    13.9450    23.0840 ha         1 VPS       0.120000
     28 H6         -11.5850    11.2280    23.4380 ha         1 VPS       0.149000
     29 H7         -10.1280    12.3270    19.5720 ha         1 VPS       0.160000
     30 H8         -11.8820    14.2990    20.5680 ha         1 VPS       0.159500
     31 H9         -11.9060    17.6850    18.9930 hn         1 VPS       0.447800
     32 H10         -7.8290    18.3950    17.4080 hn         1 VPS       0.447800
     33 H11         -6.5420    17.3050    17.7960 hn         1 VPS       0.447800
     34 C20        -12.0750    10.8470    20.7720 c          1 VPS       0.922200
     35 C02        -16.2920    14.5040    21.7170 cg         1 VPS       0.258800
     36 O21        -11.9740    10.6700    19.5440 o          1 VPS      -0.817800
     37 O22        -12.9780    10.4370    21.5250 o          1 VPS      -0.817800
@<TRIPOS>BOND
     1     1     2 ar  
     2     1    19 ar  
     3     1    20 1   
     4     2     3 ar  
     5     3    21 ar  
     6     3    22 1   
     7     4    12 ar  
     8     4    15 ar  
     9     4    22 1   
    10     5    12 ar  
    11     5    13 ar  
    12     5    23 1   
    13     6     7 ar  
    14     6    16 ar  
    15     6    24 1   
    16     7     8 ar  
    17     7    35 1   
    18     8     9 ar  
    19     8    25 1   
    20     9    10 ar  
    21     9    26 1   
    22    10    16 ar  
    23    10    18 1   
    24    11    18 1   
    25    11    19 ar  
    26    11    21 ar  
    27    12    27 1   
    28    13    14 ar  
    29    13    28 1   
    30    14    15 ar  
    31    14    34 1   
    32    15    29 1   
    33    16    30 1   
    34    17    35 3   
    35    18    31 1   
    36    20    32 1   
    37    20    33 1   
    38    34    36 1   
    39    34    37 1   
@<TRIPOS>SUBSTRUCTURE
     1 VPS         1 TEMP              0 ****  ****    0 ROOT
