@<TRIPOS>MOLECULE
VPU
   53    54     1     0     0
SMALL
abcg2


@<TRIPOS>ATOM
      1 C3           0.9600     7.4020    -0.3730 c3         1 VPU      -0.088100
      2 C2           0.0990     6.4390     0.4310 c3         1 VPU      -0.076400
      3 C1          -0.2610     5.1850    -0.3560 c3         1 VPU      -0.068400
      4 CAH         -1.1210     4.2240     0.4530 c3         1 VPU      -0.151400
      5 CAG         -1.5780     3.0170    -0.3340 c          1 VPU       0.620100
      6 OAN         -1.8110     3.0630    -1.5320 o          1 VPU      -0.596100
      7 NAI         -1.7420     1.8970     0.4000 ns         1 VPU      -0.486900
      8 CAB         -2.2460     0.6700    -0.1340 c6         1 VPU       0.056400
      9 CAC         -3.5170     0.2130     0.5760 c6         1 VPU       0.157300
     10 OAJ         -4.4790     1.2100     0.3880 oh         1 VPU      -0.638000
     11 CAD         -3.9570    -1.1230    -0.0070 c6         1 VPU       0.099300
     12 OAK         -5.1170    -1.5270     0.6790 oh         1 VPU      -0.658000
     13 CAE         -2.8460    -2.1540     0.1820 c6         1 VPU       0.156300
     14 CAF         -3.1440    -3.4590    -0.5180 c3         1 VPU       0.169600
     15 OAM         -2.1500    -4.3940    -0.1850 oh         1 VPU      -0.641000
     16 OAL         -1.5960    -1.6800    -0.3440 os         1 VPU      -0.432600
     17 CAA         -1.2090    -0.4300    -0.1240 c2         1 VPU       0.549600
     18 NAY          0.0120    -0.0980    -0.0150 n2         1 VPU      -0.307700
     19 OAQ          0.8310    -1.2060    -0.0900 os         1 VPU      -0.302100
     20 CAP          2.1380    -0.9090     0.0920 c          1 VPU       0.655100
     21 OAR          2.5700     0.1870     0.3320 o          1 VPU      -0.481000
     22 NAO          2.8400    -2.0600    -0.0440 ns         1 VPU      -0.148000
     23 CAS          4.2170    -2.2560     0.0850 ca         1 VPU      -0.002000
     24 CAT          5.1490    -1.2320     0.2620 ca         1 VPU      -0.153000
     25 CAU          6.4980    -1.5470     0.3700 ca         1 VPU      -0.082000
     26 CAV          6.9430    -2.8580     0.3020 ca         1 VPU      -0.139000
     27 CAW          6.0130    -3.8740     0.1230 ca         1 VPU      -0.082000
     28 CAX          4.6650    -3.5780     0.0160 ca         1 VPU      -0.153000
     29 H3           1.9070     6.9390    -0.6570 hc         1 VPU       0.033367
     30 H3A          0.4550     7.7060    -1.2910 hc         1 VPU       0.033367
     31 H3B          1.1890     8.3040     0.1940 hc         1 VPU       0.033367
     32 H2           0.6210     6.1570     1.3510 hc         1 VPU       0.034700
     33 H2A         -0.8210     6.9410     0.7480 hc         1 VPU       0.034700
     34 H1          -0.7880     5.4700    -1.2700 hc         1 VPU       0.057200
     35 H1A          0.6570     4.6800    -0.6750 hc         1 VPU       0.057200
     36 HAH         -0.5920     3.9140     1.3580 hc         1 VPU       0.056700
     37 HAHA        -2.0240     4.7410     0.7970 hc         1 VPU       0.056700
     38 HNAI        -1.4880     1.9160     1.3750 hn         1 VPU       0.321500
     39 HAB         -2.5000     0.8480    -1.1850 h1         1 VPU       0.121700
     40 HAC         -3.2980     0.0680     1.6470 h1         1 VPU       0.049700
     41 HOAJ        -5.2830     0.9360     0.8430 ho         1 VPU       0.461000
     42 HAD         -4.1530    -0.9890    -1.0800 h1         1 VPU       0.062700
     43 HOAK        -5.7140    -1.9640     0.0660 ho         1 VPU       0.456000
     44 HAE         -2.7150    -2.3360     1.2560 h1         1 VPU       0.079700
     45 HAF         -4.1370    -3.7960    -0.1970 h1         1 VPU       0.030200
     46 HAFA        -3.1970    -3.2780    -1.6000 h1         1 VPU       0.030200
     47 HOAM        -2.3660    -5.2240    -0.6200 ho         1 VPU       0.448000
     48 HNAO         2.3000    -2.8930    -0.2330 hn         1 VPU       0.168000
     49 HAT          4.8430    -0.2010     0.3140 ha         1 VPU       0.128500
     50 HAU          7.2090    -0.7420     0.5060 ha         1 VPU       0.113000
     51 HAV          7.9970    -3.0860     0.3860 ha         1 VPU       0.114000
     52 HAW          6.3330    -4.9060     0.0660 ha         1 VPU       0.113000
     53 HAX          3.9500    -4.3810    -0.1200 ha         1 VPU       0.128500
@<TRIPOS>BOND
     1     1     2 1   
     2     1    29 1   
     3     1    30 1   
     4     1    31 1   
     5     2     3 1   
     6     2    32 1   
     7     2    33 1   
     8     3     4 1   
     9     3    34 1   
    10     3    35 1   
    11     4     5 1   
    12     4    36 1   
    13     4    37 1   
    14     5     6 2   
    15     5     7 1   
    16     7     8 1   
    17     7    38 1   
    18     8     9 1   
    19     8    17 1   
    20     8    39 1   
    21     9    10 1   
    22     9    11 1   
    23     9    40 1   
    24    10    41 1   
    25    11    12 1   
    26    11    13 1   
    27    11    42 1   
    28    12    43 1   
    29    13    14 1   
    30    13    16 1   
    31    13    44 1   
    32    14    15 1   
    33    14    45 1   
    34    14    46 1   
    35    15    47 1   
    36    16    17 1   
    37    17    18 2   
    38    18    19 1   
    39    19    20 1   
    40    20    21 2   
    41    20    22 1   
    42    22    23 1   
    43    22    48 1   
    44    23    24 ar  
    45    23    28 ar  
    46    24    25 ar  
    47    24    49 1   
    48    25    26 ar  
    49    25    50 1   
    50    26    27 ar  
    51    26    51 1   
    52    27    28 ar  
    53    27    52 1   
    54    28    53 1   
@<TRIPOS>SUBSTRUCTURE
     1 VPU         1 TEMP              0 ****  ****    0 ROOT
