@<TRIPOS>MOLECULE
VPU
   53    54     1     0     0
SMALL
No Charge or Current Charge


@<TRIPOS>ATOM
      1 C3           1.9480     6.0730     0.9130 c3         1 VPU      -0.088100
      2 C2           0.4670     5.9380     0.5130 c3         1 VPU      -0.076400
      3 C1           0.1190     4.5440    -0.0550 c3         1 VPU      -0.068400
      4 CAH         -1.3690     4.4080    -0.4570 c3         1 VPU      -0.151400
      5 CAG         -1.6720     3.0100    -1.0040 c          1 VPU       0.620100
      6 OAN         -1.3320     2.6510    -2.1220 o          1 VPU      -0.596100
      7 NAI         -2.3910     2.1930    -0.1630 ns         1 VPU      -0.486900
      8 CAB         -2.7430     0.7690    -0.4340 c6         1 VPU       0.056400
      9 CAC         -3.8400     0.2670     0.5390 c6         1 VPU       0.157300
     10 OAJ         -5.0220     1.0760     0.4470 oh         1 VPU      -0.638000
     11 CAD         -4.1910    -1.2130     0.2270 c6         1 VPU       0.099300
     12 OAK         -5.2380    -1.6610     1.1150 oh         1 VPU      -0.658000
     13 CAE         -2.8970    -2.0680     0.3760 c6         1 VPU       0.156300
     14 CAF         -3.1060    -3.5700    -0.0080 c3         1 VPU       0.169600
     15 OAM         -1.9020    -4.3530     0.0960 oh         1 VPU      -0.641000
     16 OAL         -1.8180    -1.5400    -0.4380 os         1 VPU      -0.432600
     17 CAA         -1.5340    -0.1900    -0.3930 c2         1 VPU       0.549600
     18 NAY         -0.3000     0.2030    -0.3300 n2         1 VPU      -0.307700
     19 OAQ          0.6690    -0.8540    -0.3000 os         1 VPU      -0.302100
     20 CAP          1.9900    -0.4610    -0.2220 c          1 VPU       0.655100
     21 OAR          2.3770     0.7010    -0.1720 o          1 VPU      -0.481000
     22 NAO          2.7880    -1.5910    -0.2050 ns         1 VPU      -0.148000
     23 CAS          4.1970    -1.7660    -0.1330 ca         1 VPU      -0.002000
     24 CAT          5.1130    -0.6920    -0.0670 ca         1 VPU      -0.153000
     25 CAU          6.4950    -0.9390     0.0020 ca         1 VPU      -0.082000
     26 CAV          6.9760    -2.2580     0.0050 ca         1 VPU      -0.139000
     27 CAW          6.0750    -3.3320    -0.0610 ca         1 VPU      -0.082000
     28 CAX          4.6930    -3.0840    -0.1290 ca         1 VPU      -0.153000
     29 H3           2.2100     5.3400     1.6860 hc         1 VPU       0.033367
     30 H3A          2.6010     5.9110     0.0470 hc         1 VPU       0.033367
     31 H3B          2.1470     7.0750     1.3090 hc         1 VPU       0.033367
     32 H2          -0.1590     6.1400     1.3910 hc         1 VPU       0.034700
     33 H2A          0.2280     6.7050    -0.2340 hc         1 VPU       0.034700
     34 H1           0.7500     4.3440    -0.9310 hc         1 VPU       0.057200
     35 H1A          0.3620     3.7780     0.6930 hc         1 VPU       0.057200
     36 HAH         -1.9870     4.6070     0.4270 hc         1 VPU       0.056700
     37 HAHA        -1.5880     5.1460    -1.2380 hc         1 VPU       0.056700
     38 HNAI        -2.6770     2.5970     0.7220 hn         1 VPU       0.321500
     39 HAB         -3.1500     0.7180    -1.4540 h1         1 VPU       0.121700
     40 HAC         -3.4410     0.3160     1.5640 h1         1 VPU       0.049700
     41 HOAJ        -5.7300     0.5350     0.8670 ho         1 VPU       0.461000
     42 HAD         -4.5310    -1.2770    -0.8180 h1         1 VPU       0.062700
     43 HOAK        -5.7080    -2.4050     0.6750 ho         1 VPU       0.456000
     44 HAE         -2.5770    -2.0340     1.4280 h1         1 VPU       0.079700
     45 HAF         -3.8780    -3.9930     0.6480 h1         1 VPU       0.030200
     46 HAFA        -3.4910    -3.6110    -1.0360 h1         1 VPU       0.030200
     47 HOAM        -2.1190    -5.2580    -0.2200 ho         1 VPU       0.448000
     48 HNAO         2.2670    -2.4560    -0.2520 hn         1 VPU       0.168000
     49 HAT          4.7770     0.3400    -0.0680 ha         1 VPU       0.128500
     50 HAU          7.1940    -0.1070     0.0520 ha         1 VPU       0.113000
     51 HAV          8.0460    -2.4480     0.0580 ha         1 VPU       0.114000
     52 HAW          6.4450    -4.3550    -0.0580 ha         1 VPU       0.113000
     53 HAX          4.0040    -3.9250    -0.1800 ha         1 VPU       0.128500
@<TRIPOS>BOND
     1     1     2 1   
     2     1    29 1   
     3     1    30 1   
     4     1    31 1   
     5     2     3 1   
     6     2    32 1   
     7     2    33 1   
     8     3     4 1   
     9     3    34 1   
    10     3    35 1   
    11     4     5 1   
    12     4    36 1   
    13     4    37 1   
    14     5     6 2   
    15     5     7 1   
    16     7     8 1   
    17     7    38 1   
    18     8     9 1   
    19     8    17 1   
    20     8    39 1   
    21     9    10 1   
    22     9    11 1   
    23     9    40 1   
    24    10    41 1   
    25    11    12 1   
    26    11    13 1   
    27    11    42 1   
    28    12    43 1   
    29    13    14 1   
    30    13    16 1   
    31    13    44 1   
    32    14    15 1   
    33    14    45 1   
    34    14    46 1   
    35    15    47 1   
    36    16    17 1   
    37    17    18 2   
    38    18    19 1   
    39    19    20 1   
    40    20    21 2   
    41    20    22 1   
    42    22    23 1   
    43    22    48 1   
    44    23    24 ar  
    45    23    28 ar  
    46    24    25 ar  
    47    24    49 1   
    48    25    26 ar  
    49    25    50 1   
    50    26    27 ar  
    51    26    51 1   
    52    27    28 ar  
    53    27    52 1   
    54    28    53 1   
@<TRIPOS>SUBSTRUCTURE
     1 VPU         1 TEMP              0 ****  ****    0 ROOT
