@<TRIPOS>MOLECULE
VPV
   41    40     1     0     0
SMALL
No Charge or Current Charge


@<TRIPOS>ATOM
      1 C           25.4840   -17.7650    14.3810 c          1 VPV       0.903600
      2 N           27.2000   -15.9260    15.1940 n8         1 VPV      -0.892800
      3 O12         27.2650   -23.5540     7.7440 o          1 VPV      -0.865800
      4 O11         27.0050   -22.3690     9.5180 o          1 VPV      -0.865800
      5 C1          27.2040   -17.9920     6.6430 ce         1 VPV       0.350300
      6 C2          28.2490   -17.9470     5.4810 c          1 VPV       0.844300
      7 C9          27.1480   -22.4730     8.3080 c          1 VPV       0.930600
      8 C7          25.6590   -20.8680     7.0280 c3         1 VPV      -0.047400
      9 C6          25.5110   -19.8300     5.8790 c3         1 VPV       0.143100
     10 O10         24.1800   -19.9250     5.3630 oh         1 VPV      -0.635800
     11 C5          25.7510   -18.3490     6.2710 c3         1 VPV      -0.180700
     12 O4          29.4230   -17.6460     5.7100 o          1 VPV      -0.834300
     13 O3          27.8990   -18.2000     4.3270 o          1 VPV      -0.834300
     14 NZ          27.5730   -17.6460     7.8610 n2         1 VPV      -0.584900
     15 CE          26.6490   -17.5680     9.0030 c3         1 VPV       0.098800
     16 CD          27.4230   -17.2140    10.2900 c3         1 VPV      -0.064400
     17 CG          26.5060   -17.0780    11.5260 c3         1 VPV      -0.077400
     18 CB          27.2780   -16.7080    12.8150 c3         1 VPV      -0.043400
     19 CA          26.3720   -16.4820    14.0570 c3         1 VPV       0.010500
     20 O           26.0270   -18.7530    14.8650 o          1 VPV      -0.844800
     21 OXT         24.2650   -17.6780    14.2710 o          1 VPV      -0.844800
     22 H1          26.5830   -15.7050    15.9820 hn         1 VPV       0.314300
     23 H2          27.8050   -16.6730    15.5520 hn         1 VPV       0.314300
     24 H5          27.4720   -20.3500     8.0410 hc         1 VPV       0.039700
     25 H6          27.6770   -21.3610     6.5210 hc         1 VPV       0.039700
     26 H7          25.0880   -20.5370     7.9040 hc         1 VPV       0.036700
     27 H8          25.1920   -21.8040     6.6950 hc         1 VPV       0.036700
     28 H9          26.2180   -20.1040     5.0840 h1         1 VPV       0.047700
     29 H10         24.1090   -19.2650     4.6430 ho         1 VPV       0.371000
     30 H11         25.4640   -17.7260     5.4160 hc         1 VPV       0.028700
     31 H12         25.0380   -18.0740     7.0560 hc         1 VPV       0.028700
     32 H14         25.8870   -16.7960     8.8280 h1         1 VPV       0.036700
     33 H15         26.1330   -18.5250     9.1530 h1         1 VPV       0.036700
     34 H16         28.1770   -17.9880    10.4830 hc         1 VPV       0.028700
     35 H17         27.9620   -16.2690    10.1380 hc         1 VPV       0.028700
     36 H18         25.7490   -16.3080    11.3270 hc         1 VPV       0.046200
     37 H19         25.9700   -18.0240    11.6750 hc         1 VPV       0.046200
     38 H20         28.0050   -17.5000    13.0350 hc         1 VPV       0.018200
     39 H21         27.8550   -15.7950    12.6240 hc         1 VPV       0.018200
     40 H22         25.6650   -15.6850    13.7880 h1         1 VPV       0.030700
     41 C8          27.1170   -21.1980     7.4490 c3         1 VPV      -0.214400
@<TRIPOS>BOND
     1     1    19 1   
     2     1    20 1   
     3     1    21 1   
     4     2    19 1   
     5     2    22 1   
     6     2    23 1   
     7     3     7 1   
     8     4     7 1   
     9     5     6 1   
    10     5    11 1   
    11     5    14 2   
    12     6    12 1   
    13     6    13 1   
    14     7    41 1   
    15     8     9 1   
    16     8    26 1   
    17     8    27 1   
    18     8    41 1   
    19     9    10 1   
    20     9    11 1   
    21     9    28 1   
    22    10    29 1   
    23    11    30 1   
    24    11    31 1   
    25    14    15 1   
    26    15    16 1   
    27    15    32 1   
    28    15    33 1   
    29    16    17 1   
    30    16    34 1   
    31    16    35 1   
    32    17    18 1   
    33    17    36 1   
    34    17    37 1   
    35    18    19 1   
    36    18    38 1   
    37    18    39 1   
    38    19    40 1   
    39    24    41 1   
    40    25    41 1   
@<TRIPOS>SUBSTRUCTURE
     1 VPV         1 TEMP              0 ****  ****    0 ROOT
