@<TRIPOS>MOLECULE
VPV
   41    40     1     0     0
SMALL
bcc


@<TRIPOS>ATOM
      1 C           25.8200   -17.7140    14.5550 c          1 VPV       0.903600
      2 N           26.9880   -15.5200    14.9930 n8         1 VPV      -0.892800
      3 O12         28.0510   -23.2390     7.9350 o          1 VPV      -0.865800
      4 O11         26.1860   -22.5320     8.9310 o          1 VPV      -0.865800
      5 C1          27.2590   -18.1520     6.8880 ce         1 VPV       0.350300
      6 C2          28.3320   -18.1610     5.7770 c          1 VPV       0.844300
      7 C9          27.0550   -22.4920     8.0370 c          1 VPV       0.930600
      8 C7          25.5440   -20.7550     6.8510 c3         1 VPV      -0.047400
      9 C6          25.4610   -19.6210     5.8320 c3         1 VPV       0.143100
     10 O10         24.1240   -19.5810     5.3560 oh         1 VPV      -0.635800
     11 C5          25.8310   -18.2520     6.4240 c3         1 VPV      -0.180700
     12 O4          29.4610   -18.5810     6.0780 o          1 VPV      -0.834300
     13 O3          27.9520   -17.7320     4.6700 o          1 VPV      -0.834300
     14 NZ          27.6650   -18.0460     8.0850 n2         1 VPV      -0.584900
     15 CE          26.7650   -18.0140     9.2140 c3         1 VPV       0.098800
     16 CD          27.4110   -17.2890    10.3870 c3         1 VPV      -0.064400
     17 CG          26.5130   -17.2430    11.6150 c3         1 VPV      -0.077400
     18 CB          27.1660   -16.5220    12.7870 c3         1 VPV      -0.043400
     19 CA          26.2700   -16.3360    14.0130 c3         1 VPV       0.010500
     20 O           26.6610   -18.3310    15.2450 o          1 VPV      -0.844800
     21 OXT         24.6780   -18.1090    14.2440 o          1 VPV      -0.844800
     22 H1          26.3570   -15.2980    15.7550 hn         1 VPV       0.314300
     23 H2          27.6950   -16.1140    15.4140 hn         1 VPV       0.314300
     24 H5          27.6880   -20.6420     7.1700 hc         1 VPV       0.039700
     25 H6          27.2040   -21.8190     5.9900 hc         1 VPV       0.039700
     26 H7          25.2160   -20.3930     7.8290 hc         1 VPV       0.036700
     27 H8          24.8290   -21.5280     6.5560 hc         1 VPV       0.036700
     28 H9          26.1430   -19.8390     4.9980 h1         1 VPV       0.047700
     29 H10         24.0490   -18.8520     4.7330 ho         1 VPV       0.371000
     30 H11         25.6830   -17.4950     5.6490 hc         1 VPV       0.028700
     31 H12         25.1240   -18.0360     7.2270 hc         1 VPV       0.028700
     32 H14         25.7960   -17.5480     8.9950 h1         1 VPV       0.036700
     33 H15         26.5440   -19.0470     9.5110 h1         1 VPV       0.036700
     34 H16         28.3550   -17.7820    10.6360 hc         1 VPV       0.028700
     35 H17         27.6660   -16.2690    10.0800 hc         1 VPV       0.028700
     36 H18         25.5720   -16.7440    11.3600 hc         1 VPV       0.046200
     37 H19         26.2460   -18.2650    11.9000 hc         1 VPV       0.046200
     38 H20         28.0700   -17.0640    13.0880 hc         1 VPV       0.018200
     39 H21         27.5000   -15.5320    12.4570 hc         1 VPV       0.018200
     40 H22         25.3840   -15.7730    13.7010 h1         1 VPV       0.030700
     41 C8          26.9220   -21.3950     6.9600 c3         1 VPV      -0.214400
@<TRIPOS>BOND
     1     1    19 1   
     2     1    20 1   
     3     1    21 1   
     4     2    19 1   
     5     2    22 1   
     6     2    23 1   
     7     3     7 1   
     8     4     7 1   
     9     5     6 1   
    10     5    11 1   
    11     5    14 2   
    12     6    12 1   
    13     6    13 1   
    14     7    41 1   
    15     8     9 1   
    16     8    26 1   
    17     8    27 1   
    18     8    41 1   
    19     9    10 1   
    20     9    11 1   
    21     9    28 1   
    22    10    29 1   
    23    11    30 1   
    24    11    31 1   
    25    14    15 1   
    26    15    16 1   
    27    15    32 1   
    28    15    33 1   
    29    16    17 1   
    30    16    34 1   
    31    16    35 1   
    32    17    18 1   
    33    17    36 1   
    34    17    37 1   
    35    18    19 1   
    36    18    38 1   
    37    18    39 1   
    38    19    40 1   
    39    24    41 1   
    40    25    41 1   
@<TRIPOS>SUBSTRUCTURE
     1 VPV         1 TEMP              0 ****  ****    0 ROOT
