@<TRIPOS>MOLECULE
VPW
   25    26     1     0     0
SMALL
No Charge or Current Charge


@<TRIPOS>ATOM
      1 C7          25.8400    17.4890    -8.8450 c2         1 VPW      -0.209200
      2 C8          26.7320    18.1660    -7.8140 c6         1 VPW       0.190000
      3 C9          28.5560    16.7120    -8.5720 c6         1 VPW       0.157800
      4 C1          24.4870    13.9680   -11.8750 ca         1 VPW      -0.102500
      5 C5          25.3610    15.9470   -10.7360 ca         1 VPW      -0.040800
      6 C6          26.2810    16.5780    -9.7470 ce         1 VPW      -0.057400
      7 C4          24.4690    16.7480   -11.4790 ca         1 VPW      -0.095000
      8 C3          23.5960    16.1650   -12.4140 ca         1 VPW      -0.102500
      9 C2          23.6070    14.7750   -12.6120 ca         1 VPW       0.123000
     10 Cl          22.5140    14.0450   -13.7810 cl         1 VPW      -0.214000
     11 C           25.3610    14.5510   -10.9400 ca         1 VPW      -0.095000
     12 C10         27.7740    16.2150    -9.8120 c6         1 VPW      -0.032200
     13 N           28.1530    18.0900    -8.2150 n7         1 VPW      -0.859400
     14 H1          24.7860    17.7640    -8.8030 ha         1 VPW       0.176000
     15 H2          26.4370    19.2200    -7.6940 h1         1 VPW       0.040700
     16 H3          26.5970    17.6710    -6.8410 h1         1 VPW       0.040700
     17 H4          28.3580    16.0430    -7.7200 h1         1 VPW       0.032700
     18 H5          29.6360    16.6780    -8.7790 h1         1 VPW       0.032700
     19 H7          24.4590    17.8260   -11.3370 ha         1 VPW       0.118500
     20 H8          22.9140    16.7890   -12.9860 ha         1 VPW       0.129500
     21 H9          26.0280    13.9110   -10.3660 ha         1 VPW       0.118500
     22 H10         27.9160    15.1320    -9.9130 hc         1 VPW       0.054200
     23 H11         28.2060    16.6670   -10.7150 hc         1 VPW       0.054200
     24 H12         28.7310    18.4180    -7.4300 hn         1 VPW       0.411000
     25 H6          24.4900    12.8910   -12.0260 ha         1 VPW       0.129500
@<TRIPOS>BOND
     1     1     2 1   
     2     1     6 2   
     3     1    14 1   
     4     2    13 1   
     5     2    15 1   
     6     2    16 1   
     7     3    12 1   
     8     3    13 1   
     9     3    17 1   
    10     3    18 1   
    11     4     9 ar  
    12     4    11 ar  
    13     4    25 1   
    14     5     6 1   
    15     5     7 ar  
    16     5    11 ar  
    17     6    12 1   
    18     7     8 ar  
    19     7    19 1   
    20     8     9 ar  
    21     8    20 1   
    22     9    10 1   
    23    11    21 1   
    24    12    22 1   
    25    12    23 1   
    26    13    24 1   
@<TRIPOS>SUBSTRUCTURE
     1 VPW         1 TEMP              0 ****  ****    0 ROOT
