@<TRIPOS>MOLECULE
VPW
   25    26     1     0     0
SMALL
abcg2


@<TRIPOS>ATOM
      1 C7          25.8820    17.5300    -8.9110 c2         1 VPW      -0.209200
      2 C8          26.7750    18.2500    -7.9490 c6         1 VPW       0.190000
      3 C9          28.4680    16.6210    -8.4760 c6         1 VPW       0.157800
      4 C1          24.6250    14.0270   -12.0000 ca         1 VPW      -0.102500
      5 C5          25.3900    15.9630   -10.7390 ca         1 VPW      -0.040800
      6 C6          26.3070    16.5830    -9.7560 ce         1 VPW      -0.057400
      7 C4          24.3720    16.7120   -11.3440 ca         1 VPW      -0.095000
      8 C3          23.4870    16.1430   -12.2480 ca         1 VPW      -0.102500
      9 C2          23.6200    14.7980   -12.5660 ca         1 VPW       0.123000
     10 CL          22.5110    14.0690   -13.7110 cl         1 VPW      -0.214000
     11 C           25.5030    14.6140   -11.0980 ca         1 VPW      -0.095000
     12 C10         27.7480    16.1290    -9.7260 c6         1 VPW      -0.032200
     13 N           28.1840    18.0420    -8.2770 n7         1 VPW      -0.859400
     14 H1          24.8350    17.8130    -8.8910 ha         1 VPW       0.176000
     15 H2          26.5550    19.3210    -7.9840 h1         1 VPW       0.040700
     16 H3          26.5310    17.9190    -6.9230 h1         1 VPW       0.040700
     17 H4          28.1420    16.0160    -7.6140 h1         1 VPW       0.032700
     18 H5          29.5450    16.4880    -8.5820 h1         1 VPW       0.032700
     19 H7          24.2800    17.7670   -11.1180 ha         1 VPW       0.118500
     20 H8          22.7110    16.7390   -12.7070 ha         1 VPW       0.129500
     21 H9          26.2730    13.9970   -10.6560 ha         1 VPW       0.118500
     22 H10         27.8040    15.0390    -9.7610 hc         1 VPW       0.054200
     23 H11         28.2590    16.4910   -10.6250 hc         1 VPW       0.054200
     24 H12         28.7600    18.4070    -7.5270 hn         1 VPW       0.411000
     25 H6          24.7220    12.9810   -12.2600 ha         1 VPW       0.129500
@<TRIPOS>BOND
     1     1     2 1   
     2     1     6 2   
     3     1    14 1   
     4     2    13 1   
     5     2    15 1   
     6     2    16 1   
     7     3    12 1   
     8     3    13 1   
     9     3    17 1   
    10     3    18 1   
    11     4     9 ar  
    12     4    11 ar  
    13     4    25 1   
    14     5     6 1   
    15     5     7 ar  
    16     5    11 ar  
    17     6    12 1   
    18     7     8 ar  
    19     7    19 1   
    20     8     9 ar  
    21     8    20 1   
    22     9    10 1   
    23    11    21 1   
    24    12    22 1   
    25    12    23 1   
    26    13    24 1   
@<TRIPOS>SUBSTRUCTURE
     1 VPW         1 TEMP              0 ****  ****    0 ROOT
