@<TRIPOS>MOLECULE
VPX
   69    73     1     0     0
SMALL
abcg2


@<TRIPOS>ATOM
      1 CAA          8.6710     5.0970     0.9880 c3         1 VPX      -0.099100
      2 CAO          7.6560     4.6510    -0.0350 c3         1 VPX       0.185600
      3 OAV          7.0320     3.4630     0.4600 os         1 VPX      -0.468100
      4 CAX          6.1190     2.8760    -0.3200 c          1 VPX       0.640100
      5 OAC          5.8090     3.2750    -1.4240 o          1 VPX      -0.545000
      6 NAU          5.6120     1.7810     0.2790 ns         1 VPX      -0.500900
      7 CBE          4.5280     1.0060    -0.2880 c6         1 VPX       0.129700
      8 CAR          4.5970    -0.4210     0.2390 c6         1 VPX      -0.084400
      9 CAP          3.1580     1.6150    -0.0040 c6         1 VPX      -0.098400
     10 CAQ          2.0470     0.7580    -0.5940 c6         1 VPX      -0.070400
     11 CBI          2.0990    -0.6810    -0.0860 c6         1 VPX      -0.055700
     12 CBG          3.4800    -1.2970    -0.3230 c6         1 VPX      -0.054700
     13 CAS          3.5420    -2.6910     0.2800 c6         1 VPX      -0.063400
     14 CBH          2.4750    -3.6190    -0.3150 c5         1 VPX      -0.175700
     15 CAY          2.3050    -4.7960     0.6090 c          1 VPX       0.658100
     16 OAD          3.0100    -5.7620     0.7270 o          1 VPX      -0.491000
     17 OAW          1.2380    -4.6100     1.3840 os         1 VPX      -0.432100
     18 CBD          0.5240    -3.4010     1.0450 c5         1 VPX       0.177300
     19 CAB         -0.9560    -3.7020     1.1130 c3         1 VPX      -0.102100
     20 CBJ          1.0690    -3.0210    -0.3390 c5         1 VPX      -0.085700
     21 CBF          1.0110    -1.5380    -0.7460 c6         1 VPX      -0.012500
     22 CAG         -0.3510    -0.9730    -0.5010 c2         1 VPX      -0.171200
     23 CAF         -1.2640    -0.7610    -1.4470 ce         1 VPX      -0.297800
     24 CBA         -2.6160    -0.2640    -1.1900 ca         1 VPX       0.403800
     25 CAK         -3.4720     0.0320    -2.2490 ca         1 VPX      -0.153000
     26 CAL         -4.7510     0.4840    -1.9820 ca         1 VPX      -0.060000
     27 NAT         -3.0040    -0.1110     0.0780 nb         1 VPX      -0.678000
     28 CAM         -4.2240     0.3220     0.3230 ca         1 VPX       0.357900
     29 CBB         -5.1630     0.6350    -0.6620 cp         1 VPX      -0.092000
     30 CBC         -6.5120     1.1020    -0.3050 cp         1 VPX      -0.005000
     31 CAN         -7.1900     0.5300     0.7710 ca         1 VPX      -0.145000
     32 CAZ         -8.4500     0.9860     1.0970 ca         1 VPX       0.174000
     33 FAE         -9.0890     0.4220     2.1300 f          1 VPX      -0.176000
     34 CAI         -9.0780     1.9930     0.3910 ca         1 VPX      -0.148000
     35 CAH         -8.4010     2.5580    -0.6810 ca         1 VPX      -0.082000
     36 CAJ         -7.1320     2.1210    -1.0280 ca         1 VPX      -0.117000
     37 H1           9.1450     6.0160     0.6440 hc         1 VPX       0.046700
     38 H2           8.2070     5.3020     1.9520 hc         1 VPX       0.046700
     39 H3           9.4530     4.3520     1.1300 hc         1 VPX       0.046700
     40 H4           6.9040     5.4280    -0.1940 h1         1 VPX       0.048700
     41 H5           8.1380     4.4530    -0.9950 h1         1 VPX       0.048700
     42 H6           5.8730     1.6030     1.2350 hn         1 VPX       0.322500
     43 H7           4.6780     0.9780    -1.3710 h1         1 VPX       0.077700
     44 H8           5.5680    -0.8570    -0.0090 hc         1 VPX       0.048700
     45 H9           4.5260    -0.4120     1.3350 hc         1 VPX       0.048700
     46 H10          3.0210     1.7040     1.0790 hc         1 VPX       0.051700
     47 H11          3.1090     2.6260    -0.4120 hc         1 VPX       0.051700
     48 H12          1.0780     1.2040    -0.3630 hc         1 VPX       0.048700
     49 H13          2.1260     0.7580    -1.6880 hc         1 VPX       0.048700
     50 H14          1.9260    -0.6600     1.0020 hc         1 VPX       0.052700
     51 H15          3.6310    -1.3820    -1.4090 hc         1 VPX       0.053700
     52 H16          4.5270    -3.1350     0.1170 hc         1 VPX       0.055200
     53 H17          3.4220    -2.6050     1.3660 hc         1 VPX       0.055200
     54 H18          2.7950    -3.9490    -1.3040 hc         1 VPX       0.090700
     55 H19          0.7810    -2.6480     1.8000 h1         1 VPX       0.064700
     56 H20         -1.2340    -4.4610     0.3820 hc         1 VPX       0.054033
     57 H21         -1.2350    -4.0560     2.1050 hc         1 VPX       0.054033
     58 H22         -1.5430    -2.8100     0.9030 hc         1 VPX       0.054033
     59 H23          0.4820    -3.5750    -1.0790 hc         1 VPX       0.066700
     60 H24          1.1980    -1.5210    -1.8270 hc         1 VPX       0.055700
     61 H25         -0.6070    -0.7300     0.5270 ha         1 VPX       0.194000
     62 H27         -1.0200    -0.9690    -2.4840 ha         1 VPX       0.175000
     63 H29         -3.1450    -0.0970    -3.2710 ha         1 VPX       0.126000
     64 H30         -5.4230     0.6960    -2.8030 ha         1 VPX       0.123000
     65 H31         -4.4820     0.4490     1.3710 h4         1 VPX       0.023100
     66 H32         -6.7540    -0.2830     1.3370 ha         1 VPX       0.134000
     67 H33        -10.0680     2.3250     0.6710 ha         1 VPX       0.134000
     68 H34         -8.8690     3.3530    -1.2440 ha         1 VPX       0.120000
     69 H35         -6.6090     2.5910    -1.8510 ha         1 VPX       0.120000
@<TRIPOS>BOND
     1     1     2 1   
     2     1    37 1   
     3     1    38 1   
     4     1    39 1   
     5     2     3 1   
     6     2    40 1   
     7     2    41 1   
     8     3     4 1   
     9     4     5 2   
    10     4     6 1   
    11     6     7 1   
    12     6    42 1   
    13     7     8 1   
    14     7     9 1   
    15     7    43 1   
    16     8    12 1   
    17     8    44 1   
    18     8    45 1   
    19     9    10 1   
    20     9    46 1   
    21     9    47 1   
    22    10    11 1   
    23    10    48 1   
    24    10    49 1   
    25    11    12 1   
    26    11    21 1   
    27    11    50 1   
    28    12    13 1   
    29    12    51 1   
    30    13    14 1   
    31    13    52 1   
    32    13    53 1   
    33    14    15 1   
    34    14    20 1   
    35    14    54 1   
    36    15    16 2   
    37    15    17 1   
    38    17    18 1   
    39    18    19 1   
    40    18    20 1   
    41    18    55 1   
    42    19    56 1   
    43    19    57 1   
    44    19    58 1   
    45    20    21 1   
    46    20    59 1   
    47    21    22 1   
    48    21    60 1   
    49    22    23 2   
    50    22    61 1   
    51    23    24 1   
    52    23    62 1   
    53    24    25 ar  
    54    24    27 ar  
    55    25    26 ar  
    56    25    63 1   
    57    26    29 ar  
    58    26    64 1   
    59    27    28 ar  
    60    28    29 ar  
    61    28    65 1   
    62    29    30 1   
    63    30    31 ar  
    64    30    36 ar  
    65    31    32 ar  
    66    31    66 1   
    67    32    33 1   
    68    32    34 ar  
    69    34    35 ar  
    70    34    67 1   
    71    35    36 ar  
    72    35    68 1   
    73    36    69 1   
@<TRIPOS>SUBSTRUCTURE
     1 VPX         1 TEMP              0 ****  ****    0 ROOT
