@<TRIPOS>MOLECULE
VPX
   69    73     1     0     0
SMALL
No Charge or Current Charge


@<TRIPOS>ATOM
      1 CAA          8.9830     4.8810     1.4130 c3         1 VPX      -0.099100
      2 CAO          7.9500     4.6260     0.3050 c3         1 VPX       0.185600
      3 OAV          7.2450     3.4200     0.6400 os         1 VPX      -0.468100
      4 CAX          6.2710     3.0000    -0.2130 c          1 VPX       0.640100
      5 OAC          5.9380     3.5520    -1.2490 o          1 VPX      -0.545000
      6 NAU          5.7280     1.8460     0.2730 ns         1 VPX      -0.500900
      7 CBE          4.6420     1.0860    -0.3490 c6         1 VPX       0.129700
      8 CAR          4.6790    -0.3860     0.1290 c6         1 VPX      -0.084400
      9 CAP          3.2690     1.7080     0.0040 c6         1 VPX      -0.098400
     10 CAQ          2.1060     0.8970    -0.6170 c6         1 VPX      -0.070400
     11 CBI          2.1350    -0.5930    -0.1610 c6         1 VPX      -0.055700
     12 CBG          3.5260    -1.2230    -0.4950 c6         1 VPX      -0.054700
     13 CAS          3.6020    -2.6920    -0.0060 c6         1 VPX      -0.063400
     14 CBH          2.4580    -3.5630    -0.6010 c5         1 VPX      -0.175700
     15 CAY          2.2940    -4.8810     0.1710 c          1 VPX       0.658100
     16 OAD          2.6730    -5.9820    -0.1980 o          1 VPX      -0.491000
     17 OAW          1.2520    -4.7290     1.0470 os         1 VPX      -0.432100
     18 CBD          0.7520    -3.3740     1.0060 c5         1 VPX       0.177300
     19 CAB         -0.7280    -3.3770     1.4380 c3         1 VPX      -0.102100
     20 CBJ          1.0500    -2.9300    -0.4610 c5         1 VPX      -0.085700
     21 CBF          0.9870    -1.4160    -0.8310 c6         1 VPX      -0.012500
     22 CAG         -0.3910    -0.8360    -0.5360 c2         1 VPX      -0.171200
     23 CAF         -1.4570    -1.0140    -1.3530 ce         1 VPX      -0.297800
     24 CBA         -2.8330    -0.4940    -1.1210 ca         1 VPX       0.403800
     25 CAK         -3.8540    -0.7520    -2.0520 ca         1 VPX      -0.153000
     26 CAL         -5.1460    -0.2580    -1.8170 ca         1 VPX      -0.060000
     27 NAT         -3.0470     0.2180     0.0060 nb         1 VPX      -0.678000
     28 CAM         -4.2950     0.6930     0.2320 ca         1 VPX       0.357900
     29 CBB         -5.3950     0.4920    -0.6420 cp         1 VPX      -0.092000
     30 CBC         -6.7530     1.0460    -0.3340 cp         1 VPX      -0.005000
     31 CAN         -7.2060     1.1760     1.0030 ca         1 VPX      -0.145000
     32 CAZ         -8.4780     1.6960     1.2870 ca         1 VPX       0.174000
     33 FAE         -8.8870     1.8040     2.5690 f          1 VPX      -0.176000
     34 CAI         -9.3290     2.1000     0.2480 ca         1 VPX      -0.148000
     35 CAH         -8.9030     1.9820    -1.0850 ca         1 VPX      -0.082000
     36 CAJ         -7.6290     1.4610    -1.3710 ca         1 VPX      -0.117000
     37 H1           9.5490     5.7960     1.2010 hc         1 VPX       0.046700
     38 H2           8.4870     5.0000     2.3840 hc         1 VPX       0.046700
     39 H3           9.6910     4.0460     1.4810 hc         1 VPX       0.046700
     40 H4           7.2600     5.4790     0.2440 h1         1 VPX       0.048700
     41 H5           8.4650     4.5250    -0.6600 h1         1 VPX       0.048700
     42 H6           6.1190     1.5160     1.1450 hn         1 VPX       0.322500
     43 H7           4.7790     1.1100    -1.4410 h1         1 VPX       0.077700
     44 H8           5.6460    -0.8320    -0.1420 hc         1 VPX       0.048700
     45 H9           4.6140    -0.4230     1.2250 hc         1 VPX       0.048700
     46 H10          3.1470     1.7530     1.0950 hc         1 VPX       0.051700
     47 H11          3.2250     2.7450    -0.3570 hc         1 VPX       0.051700
     48 H12          1.1560     1.3700    -0.3340 hc         1 VPX       0.048700
     49 H13          2.1650     0.9550    -1.7130 hc         1 VPX       0.048700
     50 H14          1.9930    -0.6170     0.9280 hc         1 VPX       0.052700
     51 H15          3.6580    -1.2210    -1.5870 hc         1 VPX       0.053700
     52 H16          4.5730    -3.1300    -0.2790 hc         1 VPX       0.055200
     53 H17          3.5610    -2.7110     1.0920 hc         1 VPX       0.055200
     54 H18          2.7330    -3.7760    -1.6400 hc         1 VPX       0.090700
     55 H19          1.3260    -2.7740     1.7270 h1         1 VPX       0.064700
     56 H20         -1.3570    -3.8880     0.7000 hc         1 VPX       0.054033
     57 H21         -0.8500    -3.8910     2.3990 hc         1 VPX       0.054033
     58 H22         -1.1120    -2.3600     1.5640 hc         1 VPX       0.054033
     59 H23          0.3460    -3.4240    -1.1420 hc         1 VPX       0.066700
     60 H24          1.1400    -1.3500    -1.9180 hc         1 VPX       0.055700
     61 H25         -0.4860    -0.2680     0.3930 ha         1 VPX       0.194000
     62 H27         -1.3480    -1.5880    -2.2720 ha         1 VPX       0.175000
     63 H29         -3.6450    -1.3330    -2.9460 ha         1 VPX       0.126000
     64 H30         -5.9420    -0.4660    -2.5280 ha         1 VPX       0.123000
     65 H31         -4.4160     1.2710     1.1470 h4         1 VPX       0.023100
     66 H32         -6.5760     0.8600     1.8300 ha         1 VPX       0.134000
     67 H33        -10.3130     2.5010     0.4770 ha         1 VPX       0.134000
     68 H34         -9.5570     2.2970    -1.8950 ha         1 VPX       0.120000
     69 H35         -7.3150     1.3920    -2.4090 ha         1 VPX       0.120000
@<TRIPOS>BOND
     1     1     2 1   
     2     1    37 1   
     3     1    38 1   
     4     1    39 1   
     5     2     3 1   
     6     2    40 1   
     7     2    41 1   
     8     3     4 1   
     9     4     5 2   
    10     4     6 1   
    11     6     7 1   
    12     6    42 1   
    13     7     8 1   
    14     7     9 1   
    15     7    43 1   
    16     8    12 1   
    17     8    44 1   
    18     8    45 1   
    19     9    10 1   
    20     9    46 1   
    21     9    47 1   
    22    10    11 1   
    23    10    48 1   
    24    10    49 1   
    25    11    12 1   
    26    11    21 1   
    27    11    50 1   
    28    12    13 1   
    29    12    51 1   
    30    13    14 1   
    31    13    52 1   
    32    13    53 1   
    33    14    15 1   
    34    14    20 1   
    35    14    54 1   
    36    15    16 2   
    37    15    17 1   
    38    17    18 1   
    39    18    19 1   
    40    18    20 1   
    41    18    55 1   
    42    19    56 1   
    43    19    57 1   
    44    19    58 1   
    45    20    21 1   
    46    20    59 1   
    47    21    22 1   
    48    21    60 1   
    49    22    23 2   
    50    22    61 1   
    51    23    24 1   
    52    23    62 1   
    53    24    25 ar  
    54    24    27 ar  
    55    25    26 ar  
    56    25    63 1   
    57    26    29 ar  
    58    26    64 1   
    59    27    28 ar  
    60    28    29 ar  
    61    28    65 1   
    62    29    30 1   
    63    30    31 ar  
    64    30    36 ar  
    65    31    32 ar  
    66    31    66 1   
    67    32    33 1   
    68    32    34 ar  
    69    34    35 ar  
    70    34    67 1   
    71    35    36 ar  
    72    35    68 1   
    73    36    69 1   
@<TRIPOS>SUBSTRUCTURE
     1 VPX         1 TEMP              0 ****  ****    0 ROOT
