@<TRIPOS>MOLECULE
VPY
   65    64     1     0     0
SMALL
No Charge or Current Charge


@<TRIPOS>ATOM
      1 S01        -12.2650     6.3110     4.6490 ss         1 VPY      -0.340600
      2 O01         -9.4390     7.8730     4.8050 oh         1 VPY      -0.654000
      3 O02        -12.5440     6.2750     7.3280 o          1 VPY      -0.519100
      4 O03         -7.5650     7.4580     6.8060 oh         1 VPY      -0.669000
      5 C01        -18.0340     8.0780    10.2100 c3         1 VPY      -0.071400
      6 C02        -17.3200     6.7230     9.9980 c3         1 VPY      -0.077400
      7 C03        -19.5740     7.9690    10.2340 c3         1 VPY      -0.042200
      8 C04        -15.7810     6.8400    10.0010 c3         1 VPY      -0.077400
      9 C05        -14.4690     8.6660     6.3320 c3         1 VPY      -0.062400
     10 C06        -20.0820     7.1520    11.4120 c2         1 VPY      -0.214200
     11 C07        -15.0780     5.4860     9.7830 c3         1 VPY      -0.090100
     12 C08        -15.8750     9.3030     6.3600 c3         1 VPY      -0.046200
     13 C09        -14.4860     7.1260     6.1630 c3         1 VPY      -0.170400
     14 C10        -20.7260     5.9710    11.3740 c2         1 VPY      -0.218200
     15 C11        -16.6700     9.0240     5.0940 c2         1 VPY      -0.220200
     16 C12        -21.1370     5.1870    10.1420 c3         1 VPY      -0.010000
     17 C13         -9.7230     6.8730     5.7960 c3         1 VPY       0.177300
     18 C14        -13.0770     6.5410     6.2610 c          1 VPY       0.603700
     19 C15        -10.5800     5.7340     5.1850 c3         1 VPY       0.056600
     20 C16        -17.7020     8.1740     4.9380 c2         1 VPY      -0.212200
     21 C17        -18.3510     7.2890     5.9870 c3         1 VPY      -0.014000
     22 C18         -8.3740     6.3530     6.3600 c3         1 VPY       0.121600
     23 C19        -20.0620     4.1860     9.7570 c2         1 VPY      -0.210200
     24 C20        -19.8000     4.7940     7.2790 c3         1 VPY      -0.010000
     25 C21        -18.0120     5.8270     5.7610 c2         1 VPY      -0.213200
     26 C22        -19.5010     4.0120     8.5460 c2         1 VPY      -0.215200
     27 C23        -18.6280     4.7670     6.3150 c2         1 VPY      -0.211200
     28 H37         -8.6300     8.3230     5.1440 ho         1 VPY       0.459000
     29 H38         -6.7520     7.0780     7.2120 ho         1 VPY       0.451000
     30 H01        -17.7430     8.7650     9.4050 hc         1 VPY       0.037200
     31 H02        -17.6910     8.5290    11.1490 hc         1 VPY       0.037200
     32 H04        -17.6230     6.0230    10.7870 hc         1 VPY       0.039700
     33 H03        -17.6460     6.2880     9.0460 hc         1 VPY       0.039700
     34 H06        -19.9960     8.9800    10.2860 hc         1 VPY       0.044700
     35 H05        -19.9080     7.5540     9.2770 hc         1 VPY       0.044700
     36 H08        -15.4660     7.5400     9.2180 hc         1 VPY       0.034700
     37 H07        -15.4510     7.2620    10.9580 hc         1 VPY       0.034700
     38 H10        -13.9520     8.9210     7.2660 hc         1 VPY       0.052700
     39 H09        -13.8860     9.1140     5.5170 hc         1 VPY       0.052700
     40 H11        -19.8610     7.6070    12.3800 ha         1 VPY       0.167000
     41 H14        -13.9900     5.6160     9.7850 hc         1 VPY       0.033700
     42 H16        -15.3410     4.7800    10.5800 hc         1 VPY       0.033700
     43 H15        -15.3700     5.0460     8.8220 hc         1 VPY       0.033700
     44 H12        -15.7670    10.3870     6.4910 hc         1 VPY       0.049200
     45 H13        -16.3990     8.9520     7.2550 hc         1 VPY       0.049200
     46 H17        -14.8930     6.9040     5.1710 hc         1 VPY       0.074200
     47 H18        -15.1160     6.6850     6.9420 hc         1 VPY       0.074200
     48 H19        -21.0210     5.4940    12.3100 ha         1 VPY       0.167000
     49 H20        -16.3220     9.5990     4.2330 ha         1 VPY       0.169000
     50 H22        -21.3840     5.8610     9.3170 hc         1 VPY       0.050700
     51 H23        -22.0700     4.6510    10.3560 hc         1 VPY       0.050700
     52 H21        -10.2770     7.3240     6.6300 h1         1 VPY       0.056700
     53 H25        -10.6960     4.9240     5.9160 h1         1 VPY       0.083700
     54 H24        -10.0560     5.3230     4.3120 h1         1 VPY       0.083700
     55 H26        -18.1690     8.0820     3.9550 ha         1 VPY       0.170000
     56 H28        -18.0490     7.5760     6.9980 hc         1 VPY       0.052700
     57 H27        -19.4380     7.4350     5.9530 hc         1 VPY       0.052700
     58 H29         -7.8480     5.7850     5.5810 h1         1 VPY       0.031200
     59 H30         -8.5770     5.6670     7.1930 h1         1 VPY       0.031200
     60 H31        -19.7450     3.5510    10.5870 ha         1 VPY       0.166000
     61 H33        -20.0760     5.8250     7.5210 hc         1 VPY       0.050200
     62 H32        -20.6750     4.3550     6.7860 hc         1 VPY       0.050200
     63 H34        -17.1780     5.6640     5.0770 ha         1 VPY       0.167000
     64 H35        -18.7380     3.2410     8.4230 ha         1 VPY       0.167000
     65 H36        -18.2880     3.7600     6.0620 ha         1 VPY       0.167000
@<TRIPOS>BOND
     1     1    18 1   
     2     1    19 1   
     3     2    17 1   
     4     2    28 1   
     5     3    18 2   
     6     4    22 1   
     7     4    29 1   
     8     5     6 1   
     9     5     7 1   
    10     5    30 1   
    11     5    31 1   
    12     6     8 1   
    13     6    32 1   
    14     6    33 1   
    15     7    10 1   
    16     7    34 1   
    17     7    35 1   
    18     8    11 1   
    19     8    36 1   
    20     8    37 1   
    21     9    12 1   
    22     9    13 1   
    23     9    38 1   
    24     9    39 1   
    25    10    14 2   
    26    10    40 1   
    27    11    41 1   
    28    11    42 1   
    29    11    43 1   
    30    12    15 1   
    31    12    44 1   
    32    12    45 1   
    33    13    18 1   
    34    13    46 1   
    35    13    47 1   
    36    14    16 1   
    37    14    48 1   
    38    15    20 2   
    39    15    49 1   
    40    16    23 1   
    41    16    50 1   
    42    16    51 1   
    43    17    19 1   
    44    17    22 1   
    45    17    52 1   
    46    19    53 1   
    47    19    54 1   
    48    20    21 1   
    49    20    55 1   
    50    21    25 1   
    51    21    56 1   
    52    21    57 1   
    53    22    58 1   
    54    22    59 1   
    55    23    26 2   
    56    23    60 1   
    57    24    26 1   
    58    24    27 1   
    59    24    61 1   
    60    24    62 1   
    61    25    27 2   
    62    25    63 1   
    63    26    64 1   
    64    27    65 1   
@<TRIPOS>SUBSTRUCTURE
     1 VPY         1 TEMP              0 ****  ****    0 ROOT
