@<TRIPOS>MOLECULE
VPY
   65    64     1     0     0
SMALL
abcg2


@<TRIPOS>ATOM
      1 S01        -12.2180     6.2870     4.7590 ss         1 VPY      -0.340600
      2 O01         -9.4500     7.6310     4.4920 oh         1 VPY      -0.654000
      3 O02        -12.3190     5.9570     7.3690 o          1 VPY      -0.519100
      4 O03         -7.3070     6.9740     6.2080 oh         1 VPY      -0.669000
      5 C01        -18.3710     8.4650    10.7700 c3         1 VPY      -0.071400
      6 C02        -17.1300     7.6200    10.5130 c3         1 VPY      -0.077400
      7 C03        -19.6830     7.7760    10.3980 c3         1 VPY      -0.042200
      8 C04        -15.8350     8.3850    10.7520 c3         1 VPY      -0.077400
      9 C05        -14.3390     8.3600     6.5950 c3         1 VPY      -0.062400
     10 C06        -19.9310     6.5210    11.1790 c2         1 VPY      -0.214200
     11 C07        -14.5910     7.5490    10.4880 c3         1 VPY      -0.090100
     12 C08        -15.7610     8.8930     6.7930 c3         1 VPY      -0.046200
     13 C09        -14.3270     6.8410     6.3970 c3         1 VPY      -0.170400
     14 C10        -20.5630     5.4230    10.7680 c2         1 VPY      -0.218200
     15 C11        -16.6390     8.6870     5.5980 c2         1 VPY      -0.220200
     16 C12        -21.1940     5.1890     9.4250 c3         1 VPY      -0.010000
     17 C13         -9.5520     6.6650     5.5100 c3         1 VPY       0.177300
     18 C14        -12.9200     6.3060     6.3850 c          1 VPY       0.603700
     19 C15        -10.5630     5.6250     5.0650 c3         1 VPY       0.056600
     20 C16        -17.6330     7.8100     5.4640 c2         1 VPY      -0.212200
     21 C17        -18.0940     6.8000     6.4750 c3         1 VPY      -0.014000
     22 C18         -8.2160     5.9870     5.7770 c3         1 VPY       0.121600
     23 C19        -20.8240     3.8480     8.8610 c2         1 VPY      -0.210200
     24 C20        -20.2740     4.5070     6.4640 c3         1 VPY      -0.010000
     25 C21        -17.9510     5.4020     5.9470 c2         1 VPY      -0.213200
     26 C22        -20.4440     3.5590     7.6180 c2         1 VPY      -0.215200
     27 C23        -18.8720     4.4400     5.9320 c2         1 VPY      -0.211200
     28 H37         -8.7590     8.2530     4.7430 ho         1 VPY       0.459000
     29 H38         -6.4170     6.6140     6.1630 ho         1 VPY       0.451000
     30 H01        -18.2960     9.3980    10.2030 hc         1 VPY       0.037200
     31 H02        -18.4000     8.7540    11.8260 hc         1 VPY       0.037200
     32 H04        -17.1480     6.7270    11.1470 hc         1 VPY       0.039700
     33 H03        -17.1480     7.2520     9.4820 hc         1 VPY       0.039700
     34 H06        -20.5050     8.4780    10.5790 hc         1 VPY       0.044700
     35 H05        -19.6970     7.5740     9.3230 hc         1 VPY       0.044700
     36 H08        -15.8200     9.2730    10.1120 hc         1 VPY       0.034700
     37 H07        -15.8180     8.7540    11.7820 hc         1 VPY       0.034700
     38 H10        -13.7440     8.6210     7.4720 hc         1 VPY       0.052700
     39 H09        -13.8710     8.8490     5.7370 hc         1 VPY       0.052700
     40 H11        -19.5700     6.5320    12.2050 ha         1 VPY       0.167000
     41 H14        -13.6780     8.1190    10.6680 hc         1 VPY       0.033700
     42 H16        -14.5630     6.6670    11.1310 hc         1 VPY       0.033700
     43 H15        -14.5620     7.2010     9.4540 hc         1 VPY       0.033700
     44 H12        -15.6960     9.9630     7.0060 hc         1 VPY       0.049200
     45 H13        -16.1890     8.4300     7.6860 hc         1 VPY       0.049200
     46 H17        -14.8420     6.5820     5.4700 hc         1 VPY       0.074200
     47 H18        -14.8640     6.3580     7.2170 hc         1 VPY       0.074200
     48 H19        -20.6730     4.6060    11.4760 ha         1 VPY       0.167000
     49 H20        -16.4160     9.3260     4.7480 ha         1 VPY       0.169000
     50 H22        -20.9600     5.9960     8.7310 hc         1 VPY       0.050700
     51 H23        -22.2840     5.2160     9.5570 hc         1 VPY       0.050700
     52 H21         -9.8980     7.1180     6.4490 h1         1 VPY       0.056700
     53 H25        -10.6420     4.8240     5.8000 h1         1 VPY       0.083700
     54 H24        -10.2530     5.1740     4.1200 h1         1 VPY       0.083700
     55 H26        -18.1710     7.7930     4.5200 ha         1 VPY       0.170000
     56 H28        -17.5120     6.8870     7.3960 hc         1 VPY       0.052700
     57 H27        -19.1310     7.0060     6.7520 hc         1 VPY       0.052700
     58 H29         -7.8750     5.4940     4.8570 h1         1 VPY       0.031200
     59 H30         -8.3570     5.2040     6.5340 h1         1 VPY       0.031200
     60 H31        -20.8930     3.0210     9.5640 ha         1 VPY       0.166000
     61 H33        -20.5480     5.5240     6.7430 hc         1 VPY       0.050200
     62 H32        -20.9650     4.2090     5.6680 hc         1 VPY       0.050200
     63 H34        -16.9710     5.1640     5.5430 ha         1 VPY       0.167000
     64 H35        -20.2210     2.5200     7.3920 ha         1 VPY       0.167000
     65 H36        -18.5830     3.4770     5.5190 ha         1 VPY       0.167000
@<TRIPOS>BOND
     1     1    18 1   
     2     1    19 1   
     3     2    17 1   
     4     2    28 1   
     5     3    18 2   
     6     4    22 1   
     7     4    29 1   
     8     5     6 1   
     9     5     7 1   
    10     5    30 1   
    11     5    31 1   
    12     6     8 1   
    13     6    32 1   
    14     6    33 1   
    15     7    10 1   
    16     7    34 1   
    17     7    35 1   
    18     8    11 1   
    19     8    36 1   
    20     8    37 1   
    21     9    12 1   
    22     9    13 1   
    23     9    38 1   
    24     9    39 1   
    25    10    14 2   
    26    10    40 1   
    27    11    41 1   
    28    11    42 1   
    29    11    43 1   
    30    12    15 1   
    31    12    44 1   
    32    12    45 1   
    33    13    18 1   
    34    13    46 1   
    35    13    47 1   
    36    14    16 1   
    37    14    48 1   
    38    15    20 2   
    39    15    49 1   
    40    16    23 1   
    41    16    50 1   
    42    16    51 1   
    43    17    19 1   
    44    17    22 1   
    45    17    52 1   
    46    19    53 1   
    47    19    54 1   
    48    20    21 1   
    49    20    55 1   
    50    21    25 1   
    51    21    56 1   
    52    21    57 1   
    53    22    58 1   
    54    22    59 1   
    55    23    26 2   
    56    23    60 1   
    57    24    26 1   
    58    24    27 1   
    59    24    61 1   
    60    24    62 1   
    61    25    27 2   
    62    25    63 1   
    63    26    64 1   
    64    27    65 1   
@<TRIPOS>SUBSTRUCTURE
     1 VPY         1 TEMP              0 ****  ****    0 ROOT
