@<TRIPOS>MOLECULE
VPZ
   45    48     1     0     0
SMALL
abcg2


@<TRIPOS>ATOM
      1 C15        -29.4600    23.8190   -13.8560 cc         1 VPZ       0.277900
      2 C14        -41.2860    24.8230   -12.1350 ca         1 VPZ      -0.027000
      3 C13        -42.4600    24.8120   -11.4020 ca         1 VPZ       0.061000
      4 C12        -43.1130    23.6160   -11.1530 ca         1 VPZ       0.209000
      5 C11        -42.5870    22.4250   -11.6210 ca         1 VPZ       0.061000
      6 C10        -41.4030    22.4230   -12.3400 ca         1 VPZ      -0.027000
      7 C8         -31.4260    23.0620   -14.4570 cd         1 VPZ       0.406400
      8 C9         -40.7550    23.6240   -12.6000 ca         1 VPZ      -0.118000
      9 C6         -33.7520    23.0340   -13.4220 cc         1 VPZ      -0.134000
     10 C5         -36.2180    22.5120   -13.3100 c6         1 VPZ       0.085300
     11 N1         -33.4710    22.0940   -15.3990 nd         1 VPZ      -0.348000
     12 C2         -37.7460    21.5740   -11.6150 c6         1 VPZ       0.134300
     13 C3         -37.9350    20.6820   -10.4070 c3         1 VPZ       0.171600
     14 O3         -39.3080    20.5990   -10.1120 oh         1 VPZ      -0.708000
     15 C4         -36.6460    23.9140   -12.8940 c6         1 VPZ       0.143300
     16 CL1        -43.4200    20.9580   -11.2930 cl         1 VPZ      -0.158000
     17 CL         -43.1430    26.2720   -10.8030 cl         1 VPZ      -0.158000
     18 S          -39.2870    23.6330   -13.5860 ss         1 VPZ      -0.235000
     19 C          -38.0360    23.8520   -12.2370 c6         1 VPZ       0.282300
     20 O2         -36.6330    24.7150   -14.0380 oh         1 VPZ      -0.690000
     21 C1         -36.3110    21.5370   -12.1370 c6         1 VPZ       0.131300
     22 O1         -35.3770    21.9200   -11.1600 oh         1 VPZ      -0.713000
     23 O          -38.1140    22.8920   -11.2450 os         1 VPZ      -0.405000
     24 N          -34.8950    22.5230   -13.9000 na         1 VPZ       0.129800
     25 N2         -34.7080    21.9630   -15.0890 nc         1 VPZ      -0.192800
     26 C7         -32.8350    22.7510   -14.4050 cd         1 VPZ       0.139000
     27 S1         -30.4780    22.6440   -15.8390 ss         1 VPZ       0.044600
     28 C16        -29.1090    23.3340   -15.0750 cd         1 VPZ      -0.290000
     29 N3         -30.7700    23.6630   -13.5140 nc         1 VPZ      -0.653000
     30 H15        -28.7820    24.3050   -13.1690 h4         1 VPZ       0.039100
     31 H14        -40.7910    25.7620   -12.3440 ha         1 VPZ       0.144500
     32 H10        -40.9920    21.4890   -12.6970 ha         1 VPZ       0.144500
     33 H6         -33.6660    23.5460   -12.4800 h4         1 VPZ       0.188000
     34 H5         -36.8790    22.1520   -14.1030 h1         1 VPZ       0.120700
     35 H2         -38.3980    21.2150   -12.4250 h1         1 VPZ       0.074700
     36 H31        -37.5110    19.6990   -10.6500 h1         1 VPZ       0.031700
     37 H32        -37.3610    21.0820    -9.5630 h1         1 VPZ       0.031700
     38 HO3        -39.4090    20.0850    -9.3060 ho         1 VPZ       0.512000
     39 H4         -35.9620    24.2980   -12.1260 h1         1 VPZ       0.069700
     40 H          -38.2580    24.8070   -11.7560 h2         1 VPZ       0.100700
     41 HO2        -36.7270    25.6380   -13.7800 ho         1 VPZ       0.519000
     42 H1         -36.1100    20.5280   -12.5150 h1         1 VPZ       0.063700
     43 HO1        -34.9870    21.1350   -10.7650 ho         1 VPZ       0.518000
     44 H16        -28.1400    23.3450   -15.5490 h4         1 VPZ       0.160000
     45 F          -44.2480    23.6130   -10.4690 f          1 VPZ      -0.141000
@<TRIPOS>BOND
     1     1    28 2   
     2     1    29 1   
     3     1    30 1   
     4     2     3 ar  
     5     2     8 ar  
     6     2    31 1   
     7     3     4 ar  
     8     3    17 1   
     9     4     5 ar  
    10     4    45 1   
    11     5     6 ar  
    12     5    16 1   
    13     6     8 ar  
    14     6    32 1   
    15     7    26 1   
    16     7    27 1   
    17     7    29 2   
    18     8    18 1   
    19     9    24 1   
    20     9    26 2   
    21     9    33 1   
    22    10    15 1   
    23    10    21 1   
    24    10    24 1   
    25    10    34 1   
    26    11    25 2   
    27    11    26 1   
    28    12    13 1   
    29    12    21 1   
    30    12    23 1   
    31    12    35 1   
    32    13    14 1   
    33    13    36 1   
    34    13    37 1   
    35    14    38 1   
    36    15    19 1   
    37    15    20 1   
    38    15    39 1   
    39    18    19 1   
    40    19    23 1   
    41    19    40 1   
    42    20    41 1   
    43    21    22 1   
    44    21    42 1   
    45    22    43 1   
    46    24    25 1   
    47    27    28 1   
    48    28    44 1   
@<TRIPOS>SUBSTRUCTURE
     1 VPZ         1 TEMP              0 ****  ****    0 ROOT
