@<TRIPOS>MOLECULE
VPZ
   45    48     1     0     0
SMALL
No Charge or Current Charge


@<TRIPOS>ATOM
      1 C15        -29.5680    24.0040   -13.8310 cc         1 VPZ       0.277900
      2 C14        -41.0040    24.2840   -11.5040 ca         1 VPZ      -0.027000
      3 C13        -42.1480    24.1680   -10.6950 ca         1 VPZ       0.061000
      4 C12        -43.1440    23.2270   -11.0160 ca         1 VPZ       0.209000
      5 C11        -42.9980    22.4060   -12.1500 ca         1 VPZ       0.061000
      6 C10        -41.8530    22.5240   -12.9570 ca         1 VPZ      -0.027000
      7 C8         -31.3810    22.9240   -14.5080 cd         1 VPZ       0.406400
      8 C9         -40.8480    23.4560   -12.6350 ca         1 VPZ      -0.118000
      9 C6         -33.6940    22.9860   -13.6630 cc         1 VPZ      -0.134000
     10 C5         -36.1880    22.4890   -13.4210 c6         1 VPZ       0.085300
     11 N1         -33.3540    21.6080   -15.4120 nd         1 VPZ      -0.348000
     12 C2         -37.7470    21.8340   -11.5420 c6         1 VPZ       0.134300
     13 C3         -37.9900    21.0760   -10.1960 c3         1 VPZ       0.171600
     14 O3         -39.3480    21.1800    -9.7270 oh         1 VPZ      -0.708000
     15 C4         -36.5940    23.9820   -13.1970 c6         1 VPZ       0.143300
     16 Cl1        -44.2370    21.2240   -12.5730 cl         1 VPZ      -0.158000
     17 Cl         -42.3170    25.2120    -9.2830 cl         1 VPZ      -0.158000
     18 S          -39.4000    23.5510   -13.6920 ss         1 VPZ      -0.235000
     19 C          -38.0200    24.0510   -12.5420 c6         1 VPZ       0.282300
     20 O2         -36.5320    24.7280   -14.4380 oh         1 VPZ      -0.690000
     21 C1         -36.2900    21.6800   -12.0890 c6         1 VPZ       0.131300
     22 O1         -35.3100    22.1560   -11.1350 oh         1 VPZ      -0.713000
     23 O          -38.0570    23.2400   -11.3420 os         1 VPZ      -0.405000
     24 N          -34.8500    22.3420   -14.0460 na         1 VPZ       0.129800
     25 N2         -34.6210    21.5070   -15.1080 nc         1 VPZ      -0.192800
     26 C7         -32.7660    22.5060   -14.5450 cd         1 VPZ       0.139000
     27 S1         -30.2060    22.2850   -15.6560 ss         1 VPZ       0.044600
     28 C16        -29.0090    23.2910   -14.8610 cd         1 VPZ      -0.290000
     29 N3         -30.9100    23.8030   -13.6230 nc         1 VPZ      -0.653000
     30 H15        -29.0480    24.6970   -13.1820 h4         1 VPZ       0.039100
     31 H14        -40.2490    25.0200   -11.2430 ha         1 VPZ       0.144500
     32 H10        -41.7430    21.8850   -13.8300 ha         1 VPZ       0.144500
     33 H6         -33.6250    23.6850   -12.8420 h4         1 VPZ       0.188000
     34 H5         -36.9110    22.0560   -14.1260 h1         1 VPZ       0.120700
     35 H2         -38.4490    21.4090   -12.2730 h1         1 VPZ       0.074700
     36 H31        -37.7260    20.0200   -10.3460 h1         1 VPZ       0.031700
     37 H32        -37.3040    21.4810    -9.4390 h1         1 VPZ       0.031700
     38 HO3        -39.3810    20.7490    -8.8420 ho         1 VPZ       0.512000
     39 H4         -35.8880    24.4170   -12.4740 h1         1 VPZ       0.069700
     40 H          -38.2230    25.0960   -12.2670 h2         1 VPZ       0.100700
     41 HO2        -36.5380    25.6890   -14.2160 ho         1 VPZ       0.519000
     42 H1         -36.1110    20.6180   -12.3180 h1         1 VPZ       0.063700
     43 HO1        -35.0940    21.4120   -10.5260 ho         1 VPZ       0.518000
     44 H16        -27.9790    23.3000   -15.1930 h4         1 VPZ       0.160000
     45 F          -44.2470    23.1150   -10.2370 f          1 VPZ      -0.141000
@<TRIPOS>BOND
     1     1    28 2   
     2     1    29 1   
     3     1    30 1   
     4     2     3 ar  
     5     2     8 ar  
     6     2    31 1   
     7     3     4 ar  
     8     3    17 1   
     9     4     5 ar  
    10     4    45 1   
    11     5     6 ar  
    12     5    16 1   
    13     6     8 ar  
    14     6    32 1   
    15     7    26 1   
    16     7    27 1   
    17     7    29 2   
    18     8    18 1   
    19     9    24 1   
    20     9    26 2   
    21     9    33 1   
    22    10    15 1   
    23    10    21 1   
    24    10    24 1   
    25    10    34 1   
    26    11    25 2   
    27    11    26 1   
    28    12    13 1   
    29    12    21 1   
    30    12    23 1   
    31    12    35 1   
    32    13    14 1   
    33    13    36 1   
    34    13    37 1   
    35    14    38 1   
    36    15    19 1   
    37    15    20 1   
    38    15    39 1   
    39    18    19 1   
    40    19    23 1   
    41    19    40 1   
    42    20    41 1   
    43    21    22 1   
    44    21    42 1   
    45    22    43 1   
    46    24    25 1   
    47    27    28 1   
    48    28    44 1   
@<TRIPOS>SUBSTRUCTURE
     1 VPZ         1 TEMP              0 ****  ****    0 ROOT
