@<TRIPOS>MOLECULE
VQ0
   41    43     1     0     0
SMALL
No Charge or Current Charge


@<TRIPOS>ATOM
      1 C12        460.6180     3.1040   118.8670 ca         1 VQ0       0.145100
      2 N2         458.6260    -0.0790   120.8700 n          1 VQ0      -0.306000
      3 C11        460.2090     3.4850   117.5680 ca         1 VQ0      -0.182000
      4 C10        461.0590     4.2560   116.7600 ca         1 VQ0       0.165000
      5 C9         462.3200     4.6510   117.2300 ca         1 VQ0      -0.125000
      6 C8         462.7370     4.2780   118.5180 ca         1 VQ0      -0.064000
      7 C2         461.3400     2.9270   124.1310 ca         1 VQ0       0.025000
      8 N1         461.9740     1.5770   126.2670 n1         1 VQ0      -0.432000
      9 C3         460.3220     3.8980   124.1880 ca         1 VQ0      -0.100000
     10 C7         461.8890     3.5170   119.3420 ca         1 VQ0       0.049100
     11 C4         459.9890     4.6370   123.0410 ca         1 VQ0       0.143000
     12 C5         460.6620     4.4100   121.8320 ca         1 VQ0      -0.157000
     13 C6         461.6670     3.4240   121.7630 ca         1 VQ0       0.137100
     14 O2         459.8080     2.3370   119.6860 os         1 VQ0      -0.351100
     15 O1         462.3490     3.1610   120.5930 os         1 VQ0      -0.231200
     16 N3         459.0060    -2.3960   120.7420 ns         1 VQ0      -0.465500
     17 C13        458.4920     1.9030   119.2920 c3         1 VQ0       0.134600
     18 C18        458.2700    -1.3310   120.3250 c          1 VQ0       0.615000
     19 C17        460.0470    -2.4120   121.6190 c          1 VQ0       0.598200
     20 C16        460.3870    -1.0790   122.1660 cc         1 VQ0      -0.104200
     21 C15        459.6750     0.0340   121.7820 cd         1 VQ0       0.026600
     22 C14        457.8590     1.1290   120.4670 c3         1 VQ0       0.109000
     23 C19        462.0120     2.6970   122.9140 ca         1 VQ0      -0.101000
     24 Cl1        458.7220     5.8530   123.1200 cl         1 VQ0      -0.192000
     25 Cl2        460.5410     4.7240   115.1470 cl         1 VQ0      -0.196000
     26 Cl3        461.7080    -0.9820   123.2990 cl         1 VQ0      -0.132000
     27 H1         459.2440     3.1930   117.1680 ha         1 VQ0       0.140000
     28 H2         462.9740     5.2440   116.5950 ha         1 VQ0       0.142000
     29 H3         463.7160     4.5800   118.8830 ha         1 VQ0       0.141000
     30 H4         459.7920     4.0870   125.1200 ha         1 VQ0       0.147000
     31 H5         460.3960     4.9970   120.9580 ha         1 VQ0       0.143000
     32 H6         458.7480    -3.2870   120.3490 hn         1 VQ0       0.347500
     33 H7         457.8560     2.7650   119.0510 h1         1 VQ0       0.062200
     34 H8         458.5440     1.2490   118.4120 h1         1 VQ0       0.062200
     35 H9         459.8660     1.0420   122.1370 h4         1 VQ0       0.224000
     36 H10        457.7790     1.8050   121.3280 h1         1 VQ0       0.083700
     37 H11        456.8340     0.8480   120.1950 h1         1 VQ0       0.083700
     38 H12        462.8000     1.9500   122.8550 ha         1 VQ0       0.153000
     39 O4         457.3650    -1.4790   119.5210 o          1 VQ0      -0.555000
     40 O3         460.6210    -3.4520   121.9020 o          1 VQ0      -0.498000
     41 C1         461.6910     2.1770   125.3060 cg         1 VQ0       0.317000
@<TRIPOS>BOND
     1     1     3 ar  
     2     1    10 ar  
     3     1    14 1   
     4     2    18 1   
     5     2    21 1   
     6     2    22 1   
     7     3     4 ar  
     8     3    27 1   
     9     4     5 ar  
    10     4    25 1   
    11     5     6 ar  
    12     5    28 1   
    13     6    10 ar  
    14     6    29 1   
    15     7     9 ar  
    16     7    23 ar  
    17     7    41 1   
    18     8    41 3   
    19     9    11 ar  
    20     9    30 1   
    21    10    15 1   
    22    11    12 ar  
    23    11    24 1   
    24    12    13 ar  
    25    12    31 1   
    26    13    15 1   
    27    13    23 ar  
    28    14    17 1   
    29    16    18 1   
    30    16    19 1   
    31    16    32 1   
    32    17    22 1   
    33    17    33 1   
    34    17    34 1   
    35    18    39 2   
    36    19    20 1   
    37    19    40 2   
    38    20    21 2   
    39    20    26 1   
    40    21    35 1   
    41    22    36 1   
    42    22    37 1   
    43    23    38 1   
@<TRIPOS>SUBSTRUCTURE
     1 VQ0         1 TEMP              0 ****  ****    0 ROOT
