@<TRIPOS>MOLECULE
VQ0
   41    43     1     0     0
SMALL
abcg2


@<TRIPOS>ATOM
      1 C12        460.3430     2.9230   118.9210 ca         1 VQ0       0.145100
      2 N2         458.3840    -0.1940   120.6260 n          1 VQ0      -0.306000
      3 C11        460.0620     3.4560   117.6660 ca         1 VQ0      -0.182000
      4 C10        461.0280     4.2360   117.0390 ca         1 VQ0       0.165000
      5 C9         462.2630     4.4920   117.6140 ca         1 VQ0      -0.125000
      6 C8         462.5360     3.9440   118.8640 ca         1 VQ0      -0.064000
      7 C2         461.7540     3.2700   124.2620 ca         1 VQ0       0.025000
      8 N1         462.7210     2.3030   126.4510 n1         1 VQ0      -0.432000
      9 C3         460.9100     4.3840   124.3330 ca         1 VQ0      -0.100000
     10 C7         461.5920     3.1690   119.5060 ca         1 VQ0       0.049100
     11 C4         460.4010     4.8750   123.1430 ca         1 VQ0       0.143000
     12 C5         460.6990     4.3000   121.9140 ca         1 VQ0      -0.157000
     13 C6         461.5500     3.2010   121.8750 ca         1 VQ0       0.137100
     14 O2         459.4810     2.1860   119.6560 os         1 VQ0      -0.351100
     15 O1         461.9020     2.5680   120.7160 os         1 VQ0      -0.231200
     16 N3         459.3010    -2.3200   120.3820 ns         1 VQ0      -0.465500
     17 C13        458.2680     1.7180   119.0620 c3         1 VQ0       0.134600
     18 C18        458.4240    -1.3750   119.8970 c          1 VQ0       0.615000
     19 C17        460.1590    -2.2200   121.4680 c          1 VQ0       0.598200
     20 C16        460.0670    -0.9390   122.1340 cc         1 VQ0      -0.104200
     21 C15        459.2060     0.0030   121.7000 cd         1 VQ0       0.026600
     22 C14        457.5530     0.9040   120.1260 c3         1 VQ0       0.109000
     23 C19        462.0830     2.6720   123.0430 ca         1 VQ0      -0.101000
     24 CL1        459.3520     6.2630   123.1930 cl         1 VQ0      -0.192000
     25 CL2        460.6560     4.9180   115.4640 cl         1 VQ0      -0.196000
     26 CL3        461.0740    -0.6740   123.5110 cl         1 VQ0      -0.132000
     27 H1         459.1110     3.2890   117.1830 ha         1 VQ0       0.140000
     28 H2         462.9960     5.1010   117.1050 ha         1 VQ0       0.142000
     29 H3         463.4900     4.1120   119.3470 ha         1 VQ0       0.141000
     30 H4         460.6680     4.8460   125.2810 ha         1 VQ0       0.147000
     31 H5         460.2840     4.7100   121.0080 ha         1 VQ0       0.143000
     32 H6         459.3350    -3.1870   119.8640 hn         1 VQ0       0.347500
     33 H7         457.6310     2.5580   118.7630 h1         1 VQ0       0.062200
     34 H8         458.4960     1.1060   118.1830 h1         1 VQ0       0.062200
     35 H9         459.1220     0.9620   122.1860 h4         1 VQ0       0.224000
     36 H10        457.2930     1.5370   120.9750 h1         1 VQ0       0.083700
     37 H11        456.6390     0.4900   119.7100 h1         1 VQ0       0.083700
     38 H12        462.7460     1.8190   122.9850 ha         1 VQ0       0.153000
     39 O4         457.7410    -1.5670   118.9060 o          1 VQ0      -0.555000
     40 O3         460.8940    -3.1400   121.7750 o          1 VQ0      -0.498000
     41 C1         462.2990     2.7400   125.4710 cg         1 VQ0       0.317000
@<TRIPOS>BOND
     1     1     3 ar  
     2     1    10 ar  
     3     1    14 1   
     4     2    18 1   
     5     2    21 1   
     6     2    22 1   
     7     3     4 ar  
     8     3    27 1   
     9     4     5 ar  
    10     4    25 1   
    11     5     6 ar  
    12     5    28 1   
    13     6    10 ar  
    14     6    29 1   
    15     7     9 ar  
    16     7    23 ar  
    17     7    41 1   
    18     8    41 3   
    19     9    11 ar  
    20     9    30 1   
    21    10    15 1   
    22    11    12 ar  
    23    11    24 1   
    24    12    13 ar  
    25    12    31 1   
    26    13    15 1   
    27    13    23 ar  
    28    14    17 1   
    29    16    18 1   
    30    16    19 1   
    31    16    32 1   
    32    17    22 1   
    33    17    33 1   
    34    17    34 1   
    35    18    39 2   
    36    19    20 1   
    37    19    40 2   
    38    20    21 2   
    39    20    26 1   
    40    21    35 1   
    41    22    36 1   
    42    22    37 1   
    43    23    38 1   
@<TRIPOS>SUBSTRUCTURE
     1 VQ0         1 TEMP              0 ****  ****    0 ROOT
