@<TRIPOS>MOLECULE
VQ1
   68    71     1     0     0
SMALL
bcc


@<TRIPOS>ATOM
      1 C20         -2.2500   -21.5770    35.8300 c5         1 VQ1       0.097100
      2 C22         -1.0160   -18.8370    37.2160 c3         1 VQ1       0.127400
      3 C24         -2.8780   -19.3750    31.6940 c3         1 VQ1       0.035700
      4 C28         -5.0310   -20.7870    28.9290 c3         1 VQ1      -0.179100
      5 C02         -3.2020   -19.6520    33.1560 c          1 VQ1       0.672100
      6 N03         -2.1540   -20.0350    33.8970 ns         1 VQ1      -0.551900
      7 C04         -2.1840   -20.1300    35.3360 c5         1 VQ1       0.095700
      8 C05         -0.8600   -19.6340    35.9410 c5         1 VQ1       0.126100
      9 O06         -0.0650   -20.7980    36.1780 os         1 VQ1      -0.406600
     10 C07         -0.7640   -21.9610    35.8450 c5         1 VQ1       0.221800
     11 N08         -0.4310   -22.9890    36.7960 na         1 VQ1      -0.262000
     12 C09         -0.4750   -22.8930    38.1600 cc         1 VQ1       0.413700
     13 N10         -0.0910   -23.9770    38.7610 nd         1 VQ1      -0.561100
     14 C11          0.2290   -24.8520    37.7490 ca         1 VQ1      -0.216200
     15 C12          0.0230   -24.2440    36.5140 ca         1 VQ1       0.454800
     16 N13          0.2240   -24.7760    35.3110 nb         1 VQ1      -0.751000
     17 C14          0.6690   -26.0160    35.4000 ca         1 VQ1       0.707900
     18 N15          0.9120   -26.7240    36.4940 nb         1 VQ1      -0.831000
     19 C16          0.7120   -26.1830    37.7070 ca         1 VQ1       0.771200
     20 N17          0.9850   -26.9410    38.7780 nh         1 VQ1      -0.764300
     21 C18          1.4420   -28.3040    38.5770 c3         1 VQ1       0.223100
     22 C19          0.7720   -26.4480    40.1250 c3         1 VQ1       0.223100
     23 O21         -3.0290   -22.3820    35.0040 oh         1 VQ1      -0.561800
     24 O23         -1.7620   -19.5780    38.1490 oh         1 VQ1      -0.608800
     25 N25         -3.9460   -19.8860    30.8750 ns         1 VQ1      -0.570900
     26 O27         -2.6570   -20.4570    29.1120 o          1 VQ1      -0.606100
     27 C29         -2.6880   -17.8540    31.5000 c3         1 VQ1      -0.043100
     28 C30         -1.6490   -17.2710    32.4150 ca         1 VQ1      -0.126300
     29 C31         -2.0120   -16.5750    33.5680 ca         1 VQ1      -0.087500
     30 C32         -1.0610   -16.0820    34.4430 ca         1 VQ1      -0.195500
     31 C33          0.2970   -16.2770    34.1880 ca         1 VQ1       0.137100
     32 O34          1.1560   -15.7670    35.0930 os         1 VQ1      -0.320900
     33 C35          2.5420   -15.9350    34.8770 c3         1 VQ1       0.123700
     34 C36          0.6790   -16.9670    33.0400 ca         1 VQ1      -0.195500
     35 C37         -0.2930   -17.4530    32.1720 ca         1 VQ1      -0.087500
     36 H1          -2.6260   -21.5650    36.8590 h1         1 VQ1       0.069700
     37 H2          -0.0180   -18.5830    37.5960 h1         1 VQ1       0.039700
     38 H3          -1.5080   -17.8920    36.9520 h1         1 VQ1       0.039700
     39 H4          -1.9570   -19.8850    31.4070 h1         1 VQ1       0.086700
     40 H5          -4.8020   -21.2480    27.9730 hc         1 VQ1       0.063033
     41 H6          -5.5980   -21.4940    29.5360 hc         1 VQ1       0.063033
     42 H7          -5.6740   -19.9230    28.7540 hc         1 VQ1       0.063033
     43 H8          -1.2700   -20.1680    33.4280 hn         1 VQ1       0.323500
     44 H9          -3.0340   -19.5500    35.6950 h1         1 VQ1       0.109700
     45 H10         -0.3400   -18.9910    35.2220 h1         1 VQ1       0.081700
     46 H11         -0.4730   -22.3470    34.8610 h2         1 VQ1       0.105700
     47 H12         -0.7940   -21.9850    38.6520 h5         1 VQ1       0.079800
     48 H13          0.8600   -26.5260    34.4610 h5         1 VQ1       0.045100
     49 H14          1.6720   -28.7390    39.5450 h1         1 VQ1       0.046533
     50 H15          0.6820   -28.9220    38.0950 h1         1 VQ1       0.046533
     51 H16          2.3410   -28.3380    37.9630 h1         1 VQ1       0.046533
     52 H17          1.0950   -27.2100    40.8300 h1         1 VQ1       0.046533
     53 H18          1.3490   -25.5450    40.3200 h1         1 VQ1       0.046533
     54 H19         -0.2780   -26.2290    40.3200 h1         1 VQ1       0.046533
     55 H20         -3.2540   -23.1880    35.4800 ho         1 VQ1       0.419000
     56 H21         -1.8450   -19.0630    38.9570 ho         1 VQ1       0.414000
     57 H22         -4.8850   -19.7770    31.2260 hn         1 VQ1       0.332500
     58 H23         -2.4170   -17.6900    30.4550 hc         1 VQ1       0.064700
     59 H24         -3.6510   -17.3640    31.6640 hc         1 VQ1       0.064700
     60 H25         -3.0610   -16.4140    33.7880 ha         1 VQ1       0.139000
     61 H26         -1.3650   -15.5410    35.3310 ha         1 VQ1       0.142500
     62 H27          3.0450   -15.4540    35.7120 h1         1 VQ1       0.043367
     63 H28          2.8290   -16.9890    34.8550 h1         1 VQ1       0.043367
     64 H29          2.8720   -15.4610    33.9490 h1         1 VQ1       0.043367
     65 H30          1.7200   -17.1350    32.8010 ha         1 VQ1       0.142500
     66 H31          0.0250   -17.9860    31.2840 ha         1 VQ1       0.139000
     67 C26         -3.7610   -20.3670    29.6280 c          1 VQ1       0.672100
     68 O01         -4.3260   -19.4660    33.5980 o          1 VQ1      -0.607100
@<TRIPOS>BOND
     1     1     7 1   
     2     1    10 1   
     3     1    23 1   
     4     1    36 1   
     5     2     8 1   
     6     2    24 1   
     7     2    37 1   
     8     2    38 1   
     9     3     5 1   
    10     3    25 1   
    11     3    27 1   
    12     3    39 1   
    13     4    40 1   
    14     4    41 1   
    15     4    42 1   
    16     4    67 1   
    17     5     6 1   
    18     5    68 2   
    19     6     7 1   
    20     6    43 1   
    21     7     8 1   
    22     7    44 1   
    23     8     9 1   
    24     8    45 1   
    25     9    10 1   
    26    10    11 1   
    27    10    46 1   
    28    11    12 1   
    29    11    15 1   
    30    12    13 2   
    31    12    47 1   
    32    13    14 1   
    33    14    15 ar  
    34    14    19 ar  
    35    15    16 ar  
    36    16    17 ar  
    37    17    18 ar  
    38    17    48 1   
    39    18    19 ar  
    40    19    20 1   
    41    20    21 1   
    42    20    22 1   
    43    21    49 1   
    44    21    50 1   
    45    21    51 1   
    46    22    52 1   
    47    22    53 1   
    48    22    54 1   
    49    23    55 1   
    50    24    56 1   
    51    25    57 1   
    52    25    67 1   
    53    26    67 2   
    54    27    28 1   
    55    27    58 1   
    56    27    59 1   
    57    28    29 ar  
    58    28    35 ar  
    59    29    30 ar  
    60    29    60 1   
    61    30    31 ar  
    62    30    61 1   
    63    31    32 1   
    64    31    34 ar  
    65    32    33 1   
    66    33    62 1   
    67    33    63 1   
    68    33    64 1   
    69    34    35 ar  
    70    34    65 1   
    71    35    66 1   
@<TRIPOS>SUBSTRUCTURE
     1 VQ1         1 TEMP              0 ****  ****    0 ROOT
