@<TRIPOS>MOLECULE
VQ1
   68    71     1     0     0
SMALL
No Charge or Current Charge


@<TRIPOS>ATOM
      1 C20         -2.7690   -22.1740    35.2660 c5         1 VQ1       0.120300
      2 C22         -4.1940   -20.1500    37.4740 c3         1 VQ1       0.150600
      3 C24         -3.3680   -18.7490    31.8320 c3         1 VQ1       0.035700
      4 C28         -5.5720   -16.7100    29.3950 c3         1 VQ1      -0.179100
      5 C02         -3.9200   -19.2890    33.1840 c          1 VQ1       0.605100
      6 N03         -3.1650   -20.2860    33.7710 ns         1 VQ1      -0.484900
      7 C04         -3.6740   -20.9260    35.0040 c5         1 VQ1       0.095700
      8 C05         -3.3090   -19.9830    36.1970 c5         1 VQ1       0.149300
      9 O06         -1.9140   -20.2460    36.5040 os         1 VQ1      -0.453000
     10 C07         -1.5050   -21.5130    35.9350 c5         1 VQ1       0.274300
     11 N08         -0.7890   -22.2880    36.9510 na         1 VQ1      -0.291300
     12 C09         -1.3660   -23.1440    37.8920 cc         1 VQ1       0.413700
     13 N10         -0.4280   -23.7420    38.6490 nd         1 VQ1      -0.561100
     14 C11          0.7820   -23.2260    38.1610 ca         1 VQ1      -0.085600
     15 C12          0.5640   -22.3440    37.1270 ca         1 VQ1       0.126500
     16 N13          1.5670   -21.7280    36.4780 nb         1 VQ1      -0.225000
     17 C14          2.8130   -22.0310    36.8980 ca         1 VQ1       0.181900
     18 N15          3.1430   -22.8780    37.8980 nb         1 VQ1      -0.305000
     19 C16          2.1290   -23.4900    38.5550 ca         1 VQ1       0.442900
     20 N17          2.5110   -24.3750    39.6050 nh         1 VQ1      -0.764300
     21 C18          3.9080   -24.8660    39.7320 c3         1 VQ1       0.223100
     22 C19          1.5620   -24.7660    40.6750 c3         1 VQ1       0.223100
     23 O21         -2.4510   -22.9140    34.0670 oh         1 VQ1      -0.684000
     24 O23         -4.3390   -21.5200    37.8950 oh         1 VQ1      -0.731000
     25 N25         -4.3900   -17.9060    31.1660 ns         1 VQ1      -0.503900
     26 O27         -3.5780   -18.0200    29.0380 o          1 VQ1      -0.606100
     27 C29         -2.0430   -17.9620    32.0180 c3         1 VQ1      -0.043100
     28 C30         -0.8530   -18.8470    32.3750 ca         1 VQ1      -0.126300
     29 C31         -0.1850   -18.6800    33.6040 ca         1 VQ1      -0.069500
     30 C32          0.9200   -19.4860    33.9210 ca         1 VQ1      -0.177500
     31 C33          1.3660   -20.4720    33.0260 ca         1 VQ1       0.137100
     32 O34          2.4580   -21.2320    33.3910 os         1 VQ1      -0.344100
     33 C35          2.9630   -22.2990    32.5680 c3         1 VQ1       0.146900
     34 C36          0.6960   -20.6450    31.7960 ca         1 VQ1      -0.177500
     35 C37         -0.4030   -19.8320    31.4720 ca         1 VQ1      -0.069500
     36 H1          -3.2770   -22.8350    35.9800 h1         1 VQ1       0.069700
     37 H2          -3.7550   -19.5460    38.2800 h1         1 VQ1       0.039700
     38 H3          -5.1820   -19.7240    37.2540 h1         1 VQ1       0.039700
     39 H4          -3.1810   -19.6220    31.1940 h1         1 VQ1       0.086700
     40 H5          -5.5540   -16.4830    28.3230 hc         1 VQ1       0.063033
     41 H6          -6.5150   -17.1820    29.6930 hc         1 VQ1       0.063033
     42 H7          -5.5650   -15.7980    30.0040 hc         1 VQ1       0.063033
     43 H8          -2.3370   -20.6020    33.2800 hn         1 VQ1       0.323500
     44 H9          -4.7440   -21.1760    34.9610 h1         1 VQ1       0.109700
     45 H10         -3.3970   -18.9290    35.9040 h1         1 VQ1       0.081700
     46 H11         -0.7690   -21.3080    35.1470 h2         1 VQ1       0.105700
     47 H12         -2.4360   -23.2940    37.9740 h5         1 VQ1       0.079800
     48 H13          3.6360   -21.5430    36.3770 h5         1 VQ1       0.045100
     49 H14          3.9670   -25.7200    40.4200 h1         1 VQ1       0.046533
     50 H15          4.2910   -25.2030    38.7580 h1         1 VQ1       0.046533
     51 H16          4.5640   -24.0710    40.1140 h1         1 VQ1       0.046533
     52 H17          2.0940   -25.1440    41.5580 h1         1 VQ1       0.046533
     53 H18          0.9680   -23.9000    41.0010 h1         1 VQ1       0.046533
     54 H19          0.8820   -25.5530    40.3220 h1         1 VQ1       0.046533
     55 H20         -2.0550   -23.7740    34.3420 ho         1 VQ1       0.518000
     56 H21         -4.9220   -21.5170    38.6910 ho         1 VQ1       0.513000
     57 H22         -5.1450   -17.5340    31.7330 hn         1 VQ1       0.332500
     58 H23         -1.8080   -17.4310    31.0880 hc         1 VQ1       0.064700
     59 H24         -2.1950   -17.1810    32.7750 hc         1 VQ1       0.064700
     60 H25         -0.5180   -17.9240    34.3130 ha         1 VQ1       0.121000
     61 H26          1.4340   -19.3460    34.8680 ha         1 VQ1       0.124500
     62 H27          3.8210   -22.7800    33.0530 h1         1 VQ1       0.043367
     63 H28          2.1910   -23.0640    32.4060 h1         1 VQ1       0.043367
     64 H29          3.2930   -21.9180    31.5930 h1         1 VQ1       0.043367
     65 H30          1.0180   -21.3950    31.0780 ha         1 VQ1       0.124500
     66 H31         -0.9020   -19.9640    30.5140 ha         1 VQ1       0.121000
     67 C26         -4.4150   -17.6020    29.8240 c          1 VQ1       0.605100
     68 O01         -4.9590   -18.8730    33.6870 o          1 VQ1      -0.607100
@<TRIPOS>BOND
     1     1     7 1   
     2     1    10 1   
     3     1    23 1   
     4     1    36 1   
     5     2     8 1   
     6     2    24 1   
     7     2    37 1   
     8     2    38 1   
     9     3     5 1   
    10     3    25 1   
    11     3    27 1   
    12     3    39 1   
    13     4    40 1   
    14     4    41 1   
    15     4    42 1   
    16     4    67 1   
    17     5     6 1   
    18     5    68 2   
    19     6     7 1   
    20     6    43 1   
    21     7     8 1   
    22     7    44 1   
    23     8     9 1   
    24     8    45 1   
    25     9    10 1   
    26    10    11 1   
    27    10    46 1   
    28    11    12 1   
    29    11    15 1   
    30    12    13 2   
    31    12    47 1   
    32    13    14 1   
    33    14    15 ar  
    34    14    19 ar  
    35    15    16 ar  
    36    16    17 ar  
    37    17    18 ar  
    38    17    48 1   
    39    18    19 ar  
    40    19    20 1   
    41    20    21 1   
    42    20    22 1   
    43    21    49 1   
    44    21    50 1   
    45    21    51 1   
    46    22    52 1   
    47    22    53 1   
    48    22    54 1   
    49    23    55 1   
    50    24    56 1   
    51    25    57 1   
    52    25    67 1   
    53    26    67 2   
    54    27    28 1   
    55    27    58 1   
    56    27    59 1   
    57    28    29 ar  
    58    28    35 ar  
    59    29    30 ar  
    60    29    60 1   
    61    30    31 ar  
    62    30    61 1   
    63    31    32 1   
    64    31    34 ar  
    65    32    33 1   
    66    33    62 1   
    67    33    63 1   
    68    33    64 1   
    69    34    35 ar  
    70    34    65 1   
    71    35    66 1   
@<TRIPOS>SUBSTRUCTURE
     1 VQ1         1 TEMP              0 ****  ****    0 ROOT
