@<TRIPOS>MOLECULE
VQ6
   26    27     1     0     0
SMALL
abcg2


@<TRIPOS>ATOM
      1 C7          53.4330    20.4350    19.4120 c          1 VQ6       0.729000
      2 C8          54.7130    18.8830    21.8690 cx         1 VQ6       0.169500
      3 C9          55.1050    18.2380    23.1590 cx         1 VQ6      -0.181900
      4 O1          54.0410    19.4640    18.9100 o          1 VQ6      -0.712500
      5 C1          49.2050    20.3830    20.6530 ca         1 VQ6      -0.186500
      6 C5          49.8570    22.0700    22.2460 ca         1 VQ6      -0.186500
      7 C6          53.0360    20.3820    20.9210 c3         1 VQ6       0.076800
      8 C4          51.1780    21.7280    22.0140 ca         1 VQ6       0.199000
      9 C3          51.5840    20.7400    21.1220 ca         1 VQ6      -0.080300
     10 C2          50.5430    20.0910    20.4630 ca         1 VQ6       0.199000
     11 F1          50.8560    19.1220    19.5700 f          1 VQ6      -0.170500
     12 F           52.1310    22.4030    22.7040 f          1 VQ6      -0.170500
     13 C           48.8660    21.3840    21.5560 ca         1 VQ6      -0.086000
     14 O           53.1330    21.5140    18.8410 o          1 VQ6      -0.712500
     15 N           53.3150    19.1010    21.5890 n7         1 VQ6      -0.801400
     16 C10         55.4430    19.6940    22.9170 cx         1 VQ6      -0.181900
     17 H1          55.2820    18.6130    20.9900 h1         1 VQ6       0.123700
     18 H2          54.3140    18.0250    23.8690 hc         1 VQ6       0.059200
     19 H3          55.9060    17.5110    23.1490 hc         1 VQ6       0.059200
     20 H7          53.6300    21.1810    21.3790 h1         1 VQ6       0.033700
     21 H8          47.8250    21.6310    21.7210 ha         1 VQ6       0.098000
     22 H9          52.7980    19.0770    22.4620 hn         1 VQ6       0.371000
     23 H11         56.4770    19.9640    22.7430 hc         1 VQ6       0.059200
     24 H12         54.8620    20.4290    23.4600 hc         1 VQ6       0.059200
     25 H5          48.4540    19.8350    20.1010 ha         1 VQ6       0.116500
     26 H6          49.6230    22.8530    22.9540 ha         1 VQ6       0.116500
@<TRIPOS>BOND
     1     1     4 1   
     2     1     7 1   
     3     1    14 1   
     4     2     3 1   
     5     2    15 1   
     6     2    16 1   
     7     2    17 1   
     8     3    16 1   
     9     3    18 1   
    10     3    19 1   
    11     5    10 ar  
    12     5    13 ar  
    13     5    25 1   
    14     6     8 ar  
    15     6    13 ar  
    16     6    26 1   
    17     7     9 1   
    18     7    15 1   
    19     7    20 1   
    20     8     9 ar  
    21     8    12 1   
    22     9    10 ar  
    23    10    11 1   
    24    13    21 1   
    25    15    22 1   
    26    16    23 1   
    27    16    24 1   
@<TRIPOS>SUBSTRUCTURE
     1 VQ6         1 TEMP              0 ****  ****    0 ROOT
