@<TRIPOS>MOLECULE
VQ6
   26    27     1     0     0
SMALL
No Charge or Current Charge


@<TRIPOS>ATOM
      1 C7          53.4390    20.5190    19.4660 c          1 VQ6       0.729000
      2 C8          54.7550    18.8710    21.8520 cx         1 VQ6       0.169500
      3 C9          55.1880    18.1000    23.0730 cx         1 VQ6      -0.181900
      4 O1          53.8030    19.5070    18.8760 o          1 VQ6      -0.712500
      5 C1          49.1640    20.3160    20.6670 ca         1 VQ6      -0.186500
      6 C5          49.7460    22.1670    22.1170 ca         1 VQ6      -0.186500
      7 C6          53.0140    20.4440    20.9970 c3         1 VQ6       0.076800
      8 C4          51.1080    21.8580    21.9670 ca         1 VQ6       0.199000
      9 C3          51.5220    20.7700    21.1640 ca         1 VQ6      -0.080300
     10 C2          50.5260    20.0040    20.5160 ca         1 VQ6       0.199000
     11 F1          50.8590    18.9510    19.7360 f          1 VQ6      -0.170500
     12 F           52.0160    22.6240    22.6140 f          1 VQ6      -0.170500
     13 C           48.7690    21.3980    21.4680 ca         1 VQ6      -0.086000
     14 O           53.3940    21.6150    18.9210 o          1 VQ6      -0.712500
     15 N           53.3460    19.1880    21.7580 n7         1 VQ6      -0.801400
     16 C10         55.5340    19.5630    22.9430 cx         1 VQ6      -0.181900
     17 H1          55.2790    18.6590    20.9150 h1         1 VQ6       0.123700
     18 H2          54.4310    17.8200    23.8010 hc         1 VQ6       0.059200
     19 H3          55.9910    17.3770    22.9500 hc         1 VQ6       0.059200
     20 H7          53.5850    21.2580    21.4620 h1         1 VQ6       0.033700
     21 H8          47.7140    21.6380    21.5840 ha         1 VQ6       0.098000
     22 H9          52.9850    19.2930    22.7110 hn         1 VQ6       0.371000
     23 H11         56.5680    19.8220    22.7320 hc         1 VQ6       0.059200
     24 H12         55.0100    20.2680    23.5830 hc         1 VQ6       0.059200
     25 H5          48.4140    19.7130    20.1600 ha         1 VQ6       0.116500
     26 H6          49.4500    23.0070    22.7400 ha         1 VQ6       0.116500
@<TRIPOS>BOND
     1     1     4 1   
     2     1     7 1   
     3     1    14 1   
     4     2     3 1   
     5     2    15 1   
     6     2    16 1   
     7     2    17 1   
     8     3    16 1   
     9     3    18 1   
    10     3    19 1   
    11     5    10 ar  
    12     5    13 ar  
    13     5    25 1   
    14     6     8 ar  
    15     6    13 ar  
    16     6    26 1   
    17     7     9 1   
    18     7    15 1   
    19     7    20 1   
    20     8     9 ar  
    21     8    12 1   
    22     9    10 ar  
    23    10    11 1   
    24    13    21 1   
    25    15    22 1   
    26    16    23 1   
    27    16    24 1   
@<TRIPOS>SUBSTRUCTURE
     1 VQ6         1 TEMP              0 ****  ****    0 ROOT
