@<TRIPOS>MOLECULE
VQ7
   57    60     1     0     0
SMALL
No Charge or Current Charge


@<TRIPOS>ATOM
      1 O4          -5.9520    -4.1260    -0.8350 o          1 VQ7      -0.524000
      2 C22         -5.4250    -3.0700    -0.5270 c          1 VQ7       0.713400
      3 N           -6.1710    -1.9010    -0.2990 n          1 VQ7      -0.326000
      4 C           -7.6560    -1.9960    -0.3480 c3         1 VQ7       0.076300
      5 N2          -4.0670    -3.0210    -0.3950 nc         1 VQ7      -0.773100
      6 C7          -3.4650    -1.9040    -0.0650 cd         1 VQ7       0.774900
      7 C6          -4.1570    -0.6980     0.1510 cd         1 VQ7      -0.513600
      8 C1          -5.5050    -0.7240     0.0070 cc         1 VQ7       0.348600
      9 N1          -6.2340     0.4300     0.1630 nh         1 VQ7      -0.703400
     10 C5          -6.2310     1.1870     1.4340 c6         1 VQ7       0.232800
     11 C4          -5.4650     2.5020     1.2540 c6         1 VQ7      -0.344900
     12 S           -6.2190     3.5210    -0.0170 s6         1 VQ7       1.091000
     13 O           -5.2960     4.6110    -0.3570 o          1 VQ7      -0.507500
     14 O1          -7.6010     3.8260     0.3750 o          1 VQ7      -0.507500
     15 C3          -6.2450     2.3440    -1.3720 c6         1 VQ7      -0.344900
     16 C2          -6.9630     1.0560    -0.9630 c6         1 VQ7       0.232800
     17 O2          -2.1070    -1.8740     0.0660 os         1 VQ7      -0.419600
     18 C8          -1.3300    -3.0670    -0.1480 c3         1 VQ7       0.212900
     19 C9           0.1380    -2.7240     0.0680 ca         1 VQ7      -0.042300
     20 C21          0.9270    -2.2610    -1.0030 ca         1 VQ7      -0.141500
     21 C20          2.2790    -1.9370    -0.8030 ca         1 VQ7       0.191500
     22 F4           3.0160    -1.5110    -1.8550 f          1 VQ7      -0.151000
     23 C12          2.8620    -2.0640     0.4760 ca         1 VQ7       0.007100
     24 C11          2.0740    -2.5360     1.5430 ca         1 VQ7       0.191500
     25 F            2.6130    -2.6730     2.7760 f          1 VQ7      -0.151000
     26 C10          0.7220    -2.8600     1.3440 ca         1 VQ7      -0.141500
     27 O3           4.1900    -1.7550     0.6910 os         1 VQ7      -0.215200
     28 C13          4.7220    -0.5150     0.4090 ca         1 VQ7       0.126100
     29 C19          6.0900    -0.4210     0.1040 ca         1 VQ7      -0.076000
     30 C17          6.6880     0.8300    -0.1870 ca         1 VQ7      -0.161300
     31 C18          8.1850     0.9190    -0.5260 c3         1 VQ7       0.365300
     32 F3           8.8020    -0.2850    -0.5080 f          1 VQ7      -0.106333
     33 F2           8.3910     1.4320    -1.7600 f          1 VQ7      -0.106333
     34 F1           8.8540     1.7020     0.3510 f          1 VQ7      -0.106333
     35 C16          5.8740     1.9900    -0.1570 ca         1 VQ7       0.131000
     36 Cl           6.5230     3.5950    -0.5040 cl         1 VQ7      -0.166000
     37 C15          4.5080     1.8930     0.1600 ca         1 VQ7      -0.077000
     38 C14          3.9290     0.6460     0.4460 ca         1 VQ7      -0.141000
     39 H1          -8.0040    -1.8040    -1.3700 h1         1 VQ7       0.060033
     40 H2          -7.9940    -2.9920    -0.0370 h1         1 VQ7       0.060033
     41 H3          -8.1140    -1.2680     0.3330 h1         1 VQ7       0.060033
     42 H4          -3.6190     0.2030     0.3970 ha         1 VQ7       0.217000
     43 H5          -7.2630     1.3890     1.7620 h1         1 VQ7       0.082450
     44 H6          -5.7560     0.5940     2.2300 h1         1 VQ7       0.082450
     45 H7          -5.4720     3.0990     2.1730 h1         1 VQ7       0.115950
     46 H8          -4.4330     2.3250     0.9330 h1         1 VQ7       0.115950
     47 H9          -6.7540     2.8420    -2.2050 h1         1 VQ7       0.115950
     48 H10         -5.2000     2.1470    -1.6340 h1         1 VQ7       0.115950
     49 H11         -6.9950     0.3760    -1.8270 h1         1 VQ7       0.082450
     50 H12         -8.0070     1.2680    -0.6810 h1         1 VQ7       0.082450
     51 H13         -1.6280    -3.8590     0.5520 h1         1 VQ7       0.073700
     52 H14         -1.4700    -3.4480    -1.1680 h1         1 VQ7       0.073700
     53 H15          0.4940    -2.1500    -1.9950 ha         1 VQ7       0.146500
     54 H16          0.1290    -3.2130     2.1840 ha         1 VQ7       0.146500
     55 H17          6.6750    -1.3370     0.0940 ha         1 VQ7       0.154000
     56 H18          3.8960     2.7920     0.1850 ha         1 VQ7       0.136000
     57 H19          2.8730     0.5910     0.6990 ha         1 VQ7       0.133000
@<TRIPOS>BOND
     1     1     2 2   
     2     2     3 1   
     3     2     5 1   
     4     3     4 1   
     5     3     8 1   
     6     4    39 1   
     7     4    40 1   
     8     4    41 1   
     9     5     6 2   
    10     6     7 1   
    11     6    17 1   
    12     7     8 2   
    13     7    42 1   
    14     8     9 1   
    15     9    10 1   
    16     9    16 1   
    17    10    11 1   
    18    10    43 1   
    19    10    44 1   
    20    11    12 1   
    21    11    45 1   
    22    11    46 1   
    23    12    13 2   
    24    12    14 2   
    25    12    15 1   
    26    15    16 1   
    27    15    47 1   
    28    15    48 1   
    29    16    49 1   
    30    16    50 1   
    31    17    18 1   
    32    18    19 1   
    33    18    51 1   
    34    18    52 1   
    35    19    20 ar  
    36    19    26 ar  
    37    20    21 ar  
    38    20    53 1   
    39    21    22 1   
    40    21    23 ar  
    41    23    24 ar  
    42    23    27 1   
    43    24    25 1   
    44    24    26 ar  
    45    26    54 1   
    46    27    28 1   
    47    28    29 ar  
    48    28    38 ar  
    49    29    30 ar  
    50    29    55 1   
    51    30    31 1   
    52    30    35 ar  
    53    31    32 1   
    54    31    33 1   
    55    31    34 1   
    56    35    36 1   
    57    35    37 ar  
    58    37    38 ar  
    59    37    56 1   
    60    38    57 1   
@<TRIPOS>SUBSTRUCTURE
     1 VQ7         1 TEMP              0 ****  ****    0 ROOT
