@<TRIPOS>MOLECULE
VQ7
   57    60     1     0     0
SMALL
abcg2


@<TRIPOS>ATOM
      1 O4          -6.0190    -3.9510    -0.8710 o          1 VQ7      -0.524000
      2 C22         -5.3820    -2.9820    -0.4920 c          1 VQ7       0.713400
      3 N           -6.0730    -1.8140    -0.1270 n          1 VQ7      -0.326000
      4 C           -7.5160    -1.9490     0.0370 c3         1 VQ7       0.076300
      5 N2          -4.0330    -3.0000    -0.3770 nc         1 VQ7      -0.773100
      6 C7          -3.4100    -1.9280     0.0180 cd         1 VQ7       0.774900
      7 C6          -4.0370    -0.7020     0.3000 cd         1 VQ7      -0.513600
      8 C1          -5.4030    -0.6670     0.1990 cc         1 VQ7       0.348600
      9 N1          -6.1460     0.4600     0.4480 nh         1 VQ7      -0.703400
     10 C5          -5.6380     1.4660     1.3610 c6         1 VQ7       0.232800
     11 C4          -4.8340     2.5880     0.7010 c6         1 VQ7      -0.344900
     12 S           -5.8180     3.4020    -0.5490 s6         1 VQ7       1.091000
     13 O           -4.9690     4.2500    -1.3810 o          1 VQ7      -0.507500
     14 O1          -6.9810     4.0040     0.1060 o          1 VQ7      -0.507500
     15 C3          -6.3770     1.9890    -1.4880 c6         1 VQ7      -0.344900
     16 C2          -7.0530     0.9710    -0.5710 c6         1 VQ7       0.232800
     17 O2          -2.0910    -1.9380     0.1320 os         1 VQ7      -0.419600
     18 C8          -1.3890    -3.1450    -0.1780 c3         1 VQ7       0.212900
     19 C9           0.0710    -2.8100    -0.1120 ca         1 VQ7      -0.042300
     20 C21          0.7010    -2.2630    -1.2250 ca         1 VQ7      -0.141500
     21 C20          2.0360    -1.9350    -1.1450 ca         1 VQ7       0.191500
     22 F4           2.6650    -1.4090    -2.1960 f          1 VQ7      -0.151000
     23 C12          2.7700    -2.1230     0.0190 ca         1 VQ7       0.007100
     24 C11          2.1150    -2.6620     1.1150 ca         1 VQ7       0.191500
     25 F            2.8110    -2.8400     2.2370 f          1 VQ7      -0.151000
     26 C10          0.7810    -3.0110     1.0650 ca         1 VQ7      -0.141500
     27 O3           4.1000    -1.8500     0.0700 os         1 VQ7      -0.215200
     28 C13          4.5040    -0.5520     0.1690 ca         1 VQ7       0.126100
     29 C19          5.8670    -0.3340     0.0230 ca         1 VQ7      -0.076000
     30 C17          6.3820     0.9490     0.1110 ca         1 VQ7      -0.161300
     31 C18          7.8580     1.1710    -0.0610 c3         1 VQ7       0.365300
     32 F3           8.5160     0.0280    -0.2670 f          1 VQ7      -0.106333
     33 F2           8.1180     1.9630    -1.1070 f          1 VQ7      -0.106333
     34 F1           8.4050     1.7440     1.0160 f          1 VQ7      -0.106333
     35 C16          5.5170     2.0180     0.3440 ca         1 VQ7       0.131000
     36 CL           6.0940     3.6440     0.4490 cl         1 VQ7      -0.166000
     37 C15          4.1610     1.7920     0.4940 ca         1 VQ7      -0.077000
     38 C14          3.6450     0.5080     0.4080 ca         1 VQ7      -0.141000
     39 H1          -8.0400    -1.8960    -0.9150 h1         1 VQ7       0.060033
     40 H2          -7.7310    -2.9120     0.4920 h1         1 VQ7       0.060033
     41 H3          -7.8840    -1.1690     0.6960 h1         1 VQ7       0.060033
     42 H4          -3.4530     0.1750     0.5240 ha         1 VQ7       0.217000
     43 H5          -6.4930     1.9000     1.8850 h1         1 VQ7       0.082450
     44 H6          -5.0190     0.9890     2.1190 h1         1 VQ7       0.082450
     45 H7          -4.5630     3.3500     1.4340 h1         1 VQ7       0.115950
     46 H8          -3.9250     2.2360     0.2130 h1         1 VQ7       0.115950
     47 H9          -7.0730     2.3650    -2.2400 h1         1 VQ7       0.115950
     48 H10         -5.5080     1.5650    -1.9950 h1         1 VQ7       0.115950
     49 H11         -7.4230     0.1660    -1.2000 h1         1 VQ7       0.082450
     50 H12         -7.9210     1.4180    -0.0840 h1         1 VQ7       0.082450
     51 H13         -1.6460    -3.9250     0.5410 h1         1 VQ7       0.073700
     52 H14         -1.6620    -3.4990    -1.1740 h1         1 VQ7       0.073700
     53 H15          0.1620    -2.1020    -2.1500 ha         1 VQ7       0.146500
     54 H16          0.3040    -3.4340     1.9400 ha         1 VQ7       0.146500
     55 H17          6.5130    -1.1820    -0.1580 ha         1 VQ7       0.154000
     56 H18          3.4930     2.6210     0.6780 ha         1 VQ7       0.136000
     57 H19          2.5800     0.3660     0.5350 ha         1 VQ7       0.133000
@<TRIPOS>BOND
     1     1     2 2   
     2     2     3 1   
     3     2     5 1   
     4     3     4 1   
     5     3     8 1   
     6     4    39 1   
     7     4    40 1   
     8     4    41 1   
     9     5     6 2   
    10     6     7 1   
    11     6    17 1   
    12     7     8 2   
    13     7    42 1   
    14     8     9 1   
    15     9    10 1   
    16     9    16 1   
    17    10    11 1   
    18    10    43 1   
    19    10    44 1   
    20    11    12 1   
    21    11    45 1   
    22    11    46 1   
    23    12    13 2   
    24    12    14 2   
    25    12    15 1   
    26    15    16 1   
    27    15    47 1   
    28    15    48 1   
    29    16    49 1   
    30    16    50 1   
    31    17    18 1   
    32    18    19 1   
    33    18    51 1   
    34    18    52 1   
    35    19    20 ar  
    36    19    26 ar  
    37    20    21 ar  
    38    20    53 1   
    39    21    22 1   
    40    21    23 ar  
    41    23    24 ar  
    42    23    27 1   
    43    24    25 1   
    44    24    26 ar  
    45    26    54 1   
    46    27    28 1   
    47    28    29 ar  
    48    28    38 ar  
    49    29    30 ar  
    50    29    55 1   
    51    30    31 1   
    52    30    35 ar  
    53    31    32 1   
    54    31    33 1   
    55    31    34 1   
    56    35    36 1   
    57    35    37 ar  
    58    37    38 ar  
    59    37    56 1   
    60    38    57 1   
@<TRIPOS>SUBSTRUCTURE
     1 VQ7         1 TEMP              0 ****  ****    0 ROOT
