@<TRIPOS>MOLECULE
VQ9
   67    70     1     0     0
SMALL
No Charge or Current Charge


@<TRIPOS>ATOM
      1 C10         47.2350     2.1500    19.7860 c6         1 VQ9       0.198800
      2 C11         46.0220     2.2990    20.7560 c6         1 VQ9       0.181800
      3 C1          49.9280     4.4380    17.1050 ca         1 VQ9      -0.088000
      4 C2          48.8850     4.0270    17.9500 ca         1 VQ9      -0.127000
      5 C3          47.9780     3.0340    17.5390 ca         1 VQ9       0.296000
      6 C4          48.1350     2.4560    16.2620 ca         1 VQ9      -0.131000
      7 C5          49.1850     2.8520    15.4020 ca         1 VQ9      -0.161300
      8 C6          50.0770     3.8560    15.8360 ca         1 VQ9      -0.095000
      9 N7          46.9280     2.6410    18.4050 nh         1 VQ9      -0.791400
     10 C8          45.6420     2.0910    17.8700 c6         1 VQ9       0.198800
     11 C9          44.4630     2.2420    18.8820 c6         1 VQ9       0.181800
     12 N12         44.7780     1.6680    20.2230 n3         1 VQ9      -0.706500
     13 S13         43.4690     1.6350    21.3130 sy         1 VQ9       1.158600
     14 C14         43.1000     3.3810    21.5600 ca         1 VQ9      -0.346500
     15 O15         42.3600     0.9920    20.5980 o          1 VQ9      -0.534500
     16 O16         43.9890     1.0590    22.5580 o          1 VQ9      -0.534500
     17 C17         43.7280     4.0960    22.5970 ca         1 VQ9       0.012000
     18 C18         43.4390     5.4580    22.7830 ca         1 VQ9      -0.173500
     19 C19         42.5270     6.1240    21.9440 ca         1 VQ9       0.047000
     20 C20         42.1710     4.0330    20.7270 ca         1 VQ9       0.012000
     21 C21         41.8880     5.3950    20.9180 ca         1 VQ9      -0.173500
     22 N22         42.2820     7.5000    22.1980 ns         1 VQ9      -0.133000
     23 C23         41.6310     8.4820    21.4610 c          1 VQ9       0.633700
     24 O24         41.1980     8.2890    20.3300 o          1 VQ9      -0.546100
     25 C25         41.6030     9.8410    22.1260 ca         1 VQ9      -0.121600
     26 C26         42.6980    10.2520    22.9300 ca         1 VQ9      -0.081000
     27 C27         42.7160    11.5240    23.5230 ca         1 VQ9      -0.108000
     28 C28         41.6470    12.4070    23.3240 ca         1 VQ9      -0.081000
     29 C29         40.5550    12.0080    22.5400 ca         1 VQ9      -0.136000
     30 C30         40.5130    10.7310    21.9500 ca         1 VQ9       0.290000
     31 N31         39.3600    10.3770    21.2320 nh         1 VQ9      -0.755300
     32 C32         38.9920    11.0990    20.0010 c3         1 VQ9       0.193100
     33 S33         38.1160     9.4930    22.0390 s6         1 VQ9       1.213100
     34 C34         37.5290    10.6140    23.2950 c3         1 VQ9      -0.380100
     35 O35         37.0380     9.2700    21.0700 o          1 VQ9      -0.528000
     36 O36         38.7630     8.3560    22.7000 o          1 VQ9      -0.528000
     37 C37         49.3320     2.2120    14.0150 c3         1 VQ9       0.354300
     38 F38         50.5930     2.2970    13.5330 f          1 VQ9      -0.114333
     39 F39         49.0110     0.8980    14.0240 f          1 VQ9      -0.114333
     40 F40         48.5230     2.8100    13.1110 f          1 VQ9      -0.114333
     41 H1          47.5210     1.0890    19.7440 h1         1 VQ9       0.052200
     42 H2          48.0880     2.6950    20.2160 h1         1 VQ9       0.052200
     43 H3          45.8600     3.3720    20.9360 h1         1 VQ9       0.063950
     44 H4          46.3050     1.8520    21.7200 h1         1 VQ9       0.063950
     45 H6          48.7720     4.4940    18.9240 ha         1 VQ9       0.119000
     46 H7          47.4430     1.6860    15.9360 ha         1 VQ9       0.130000
     47 H8          50.8880     4.1930    15.1920 ha         1 VQ9       0.131000
     48 H9          45.7640     1.0240    17.6310 h1         1 VQ9       0.052200
     49 H10         45.3640     2.6080    16.9400 h1         1 VQ9       0.052200
     50 H11         44.2260     3.3120    18.9700 h1         1 VQ9       0.063950
     51 H12         43.5810     1.7530    18.4450 h1         1 VQ9       0.063950
     52 H13         44.4410     3.6060    23.2590 ha         1 VQ9       0.133000
     53 H14         43.9340     5.9990    23.5870 ha         1 VQ9       0.134500
     54 H15         41.6650     3.4900    19.9290 ha         1 VQ9       0.133000
     55 H16         41.1570     5.8620    20.2660 ha         1 VQ9       0.134500
     56 H17         42.6240     7.8160    23.0950 hn         1 VQ9       0.164000
     57 H18         43.5580     9.6030    23.0780 ha         1 VQ9       0.126000
     58 H19         43.5670    11.8300    24.1300 ha         1 VQ9       0.125000
     59 H20         41.6620    13.3950    23.7800 ha         1 VQ9       0.123000
     60 H21         39.7220    12.6920    22.4030 ha         1 VQ9       0.120000
     61 H22         38.6910    10.3930    19.2160 h1         1 VQ9       0.057033
     62 H23         38.1650    11.7970    20.1890 h1         1 VQ9       0.057033
     63 H24         39.8470    11.6740    19.6210 h1         1 VQ9       0.057033
     64 H25         36.7090    10.1150    23.8210 h1         1 VQ9       0.102700
     65 H26         38.3640    10.8220    23.9710 h1         1 VQ9       0.102700
     66 H27         37.1850    11.5220    22.7910 h1         1 VQ9       0.102700
     67 H5          50.6190     5.2130    17.4310 ha         1 VQ9       0.119000
@<TRIPOS>BOND
     1     1     2 1   
     2     1     9 1   
     3     1    41 1   
     4     1    42 1   
     5     2    12 1   
     6     2    43 1   
     7     2    44 1   
     8     3     4 ar  
     9     3     8 ar  
    10     3    67 1   
    11     4     5 ar  
    12     4    45 1   
    13     5     6 ar  
    14     5     9 1   
    15     6     7 ar  
    16     6    46 1   
    17     7     8 ar  
    18     7    37 1   
    19     8    47 1   
    20     9    10 1   
    21    10    11 1   
    22    10    48 1   
    23    10    49 1   
    24    11    12 1   
    25    11    50 1   
    26    11    51 1   
    27    12    13 1   
    28    13    14 1   
    29    13    15 2   
    30    13    16 2   
    31    14    17 ar  
    32    14    20 ar  
    33    17    18 ar  
    34    17    52 1   
    35    18    19 ar  
    36    18    53 1   
    37    19    21 ar  
    38    19    22 1   
    39    20    21 ar  
    40    20    54 1   
    41    21    55 1   
    42    22    23 1   
    43    22    56 1   
    44    23    24 2   
    45    23    25 1   
    46    25    26 ar  
    47    25    30 ar  
    48    26    27 ar  
    49    26    57 1   
    50    27    28 ar  
    51    27    58 1   
    52    28    29 ar  
    53    28    59 1   
    54    29    30 ar  
    55    29    60 1   
    56    30    31 1   
    57    31    32 1   
    58    31    33 1   
    59    32    61 1   
    60    32    62 1   
    61    32    63 1   
    62    33    34 1   
    63    33    35 2   
    64    33    36 2   
    65    34    64 1   
    66    34    65 1   
    67    34    66 1   
    68    37    38 1   
    69    37    39 1   
    70    37    40 1   
@<TRIPOS>SUBSTRUCTURE
     1 VQ9         1 TEMP              0 ****  ****    0 ROOT
