@<TRIPOS>MOLECULE
VQ9
   67    70     1     0     0
SMALL
abcg2


@<TRIPOS>ATOM
      1 C10         47.0900     2.0890    19.9020 c6         1 VQ9       0.198800
      2 C11         45.8200     2.4580    20.6430 c6         1 VQ9       0.181800
      3 C1          50.7090     3.2790    17.9260 ca         1 VQ9      -0.088000
      4 C2          49.5000     3.1790    18.5880 ca         1 VQ9      -0.127000
      5 C3          48.3440     2.7510    17.9180 ca         1 VQ9       0.296000
      6 C4          48.4650     2.4240    16.5640 ca         1 VQ9      -0.131000
      7 C5          49.6830     2.5450    15.9050 ca         1 VQ9      -0.161300
      8 C6          50.8190     2.9710    16.5760 ca         1 VQ9      -0.095000
      9 N7          47.1200     2.6940    18.5780 nh         1 VQ9      -0.791400
     10 C8          45.9490     2.3600    17.7950 c6         1 VQ9       0.198800
     11 C9          44.6790     2.7220    18.5380 c6         1 VQ9       0.181800
     12 N12         44.6680     2.0590    19.8380 n3         1 VQ9      -0.706500
     13 S13         43.1970     1.9890    20.6040 sy         1 VQ9       1.158600
     14 C14         42.7590     3.6640    20.9470 ca         1 VQ9      -0.346500
     15 O15         42.2470     1.4620    19.6400 o          1 VQ9      -0.534500
     16 O16         43.4160     1.2870    21.8560 o          1 VQ9      -0.534500
     17 C17         43.2300     4.2940    22.0940 ca         1 VQ9       0.012000
     18 C18         42.9680     5.6360    22.2870 ca         1 VQ9      -0.173500
     19 C19         42.2370     6.3700    21.3460 ca         1 VQ9       0.047000
     20 C20         42.0220     4.3790    20.0120 ca         1 VQ9       0.012000
     21 C21         41.7560     5.7220    20.2050 ca         1 VQ9      -0.173500
     22 N22         42.0590     7.7250    21.5950 ns         1 VQ9      -0.133000
     23 C23         41.1580     8.5750    21.0220 c          1 VQ9       0.633700
     24 O24         40.3500     8.2440    20.1810 o          1 VQ9      -0.546100
     25 C25         41.2960     9.9950    21.4720 ca         1 VQ9      -0.121600
     26 C26         42.5400    10.6140    21.3970 ca         1 VQ9      -0.081000
     27 C27         42.6780    11.9660    21.6750 ca         1 VQ9      -0.108000
     28 C28         41.5690    12.7080    22.0490 ca         1 VQ9      -0.081000
     29 C29         40.3290    12.0940    22.1550 ca         1 VQ9      -0.136000
     30 C30         40.1810    10.7430    21.8640 ca         1 VQ9       0.290000
     31 N31         38.9040    10.1300    21.9490 nh         1 VQ9      -0.755300
     32 C32         37.7710    10.8130    21.3270 c3         1 VQ9       0.193100
     33 S33         38.5970     9.1890    23.2840 s6         1 VQ9       1.213100
     34 C34         38.2480    10.3180    24.6130 c3         1 VQ9      -0.380100
     35 O35         37.3950     8.4250    23.0020 o          1 VQ9      -0.528000
     36 O36         39.8300     8.4880    23.6030 o          1 VQ9      -0.528000
     37 C37         49.7390     2.2630    14.4350 c3         1 VQ9       0.354300
     38 F38         50.9420     1.8310    14.0420 f          1 VQ9      -0.114333
     39 F39         48.8480     1.3400    14.0530 f          1 VQ9      -0.114333
     40 F40         49.4740     3.3660    13.7150 f          1 VQ9      -0.114333
     41 H1          47.1660     0.9950    19.8330 h1         1 VQ9       0.052200
     42 H2          47.9280     2.4370    20.5000 h1         1 VQ9       0.052200
     43 H3          45.8080     3.5380    20.8390 h1         1 VQ9       0.063950
     44 H4          45.8120     1.9330    21.5950 h1         1 VQ9       0.063950
     45 H6          49.4560     3.4600    19.6320 ha         1 VQ9       0.119000
     46 H7          47.6090     2.0580    16.0160 ha         1 VQ9       0.130000
     47 H8          51.7730     3.0680    16.0770 ha         1 VQ9       0.131000
     48 H9          45.9250     1.2960    17.5220 h1         1 VQ9       0.052200
     49 H10         45.9480     2.9410    16.8730 h1         1 VQ9       0.052200
     50 H11         44.6190     3.8110    18.6540 h1         1 VQ9       0.063950
     51 H12         43.8310     2.3920    17.9420 h1         1 VQ9       0.063950
     52 H13         43.7920     3.7520    22.8420 ha         1 VQ9       0.133000
     53 H14         43.3360     6.1230    23.1810 ha         1 VQ9       0.134500
     54 H15         41.6490     3.8980    19.1180 ha         1 VQ9       0.133000
     55 H16         41.1870     6.2510    19.4590 ha         1 VQ9       0.134500
     56 H17         42.5730     8.0900    22.3840 hn         1 VQ9       0.164000
     57 H18         43.4070    10.0450    21.0870 ha         1 VQ9       0.126000
     58 H19         43.6480    12.4370    21.5920 ha         1 VQ9       0.125000
     59 H20         41.6650    13.7630    22.2690 ha         1 VQ9       0.123000
     60 H21         39.4700    12.6740    22.4680 ha         1 VQ9       0.120000
     61 H22         36.9520    10.1140    21.1860 h1         1 VQ9       0.057033
     62 H23         37.4100    11.6690    21.9020 h1         1 VQ9       0.057033
     63 H24         38.0870    11.1620    20.3470 h1         1 VQ9       0.057033
     64 H25         38.0450     9.7280    25.5060 h1         1 VQ9       0.102700
     65 H26         39.1110    10.9570    24.7820 h1         1 VQ9       0.102700
     66 H27         37.3750    10.9190    24.3640 h1         1 VQ9       0.102700
     67 H5          51.5810     3.6160    18.4710 ha         1 VQ9       0.119000
@<TRIPOS>BOND
     1     1     2 1   
     2     1     9 1   
     3     1    41 1   
     4     1    42 1   
     5     2    12 1   
     6     2    43 1   
     7     2    44 1   
     8     3     4 ar  
     9     3     8 ar  
    10     3    67 1   
    11     4     5 ar  
    12     4    45 1   
    13     5     6 ar  
    14     5     9 1   
    15     6     7 ar  
    16     6    46 1   
    17     7     8 ar  
    18     7    37 1   
    19     8    47 1   
    20     9    10 1   
    21    10    11 1   
    22    10    48 1   
    23    10    49 1   
    24    11    12 1   
    25    11    50 1   
    26    11    51 1   
    27    12    13 1   
    28    13    14 1   
    29    13    15 2   
    30    13    16 2   
    31    14    17 ar  
    32    14    20 ar  
    33    17    18 ar  
    34    17    52 1   
    35    18    19 ar  
    36    18    53 1   
    37    19    21 ar  
    38    19    22 1   
    39    20    21 ar  
    40    20    54 1   
    41    21    55 1   
    42    22    23 1   
    43    22    56 1   
    44    23    24 2   
    45    23    25 1   
    46    25    26 ar  
    47    25    30 ar  
    48    26    27 ar  
    49    26    57 1   
    50    27    28 ar  
    51    27    58 1   
    52    28    29 ar  
    53    28    59 1   
    54    29    30 ar  
    55    29    60 1   
    56    30    31 1   
    57    31    32 1   
    58    31    33 1   
    59    32    61 1   
    60    32    62 1   
    61    32    63 1   
    62    33    34 1   
    63    33    35 2   
    64    33    36 2   
    65    34    64 1   
    66    34    65 1   
    67    34    66 1   
    68    37    38 1   
    69    37    39 1   
    70    37    40 1   
@<TRIPOS>SUBSTRUCTURE
     1 VQ9         1 TEMP              0 ****  ****    0 ROOT
