@<TRIPOS>MOLECULE
VQA
   74    77     1     0     0
SMALL
bcc


@<TRIPOS>ATOM
      1 C10         37.9470    -7.8880    -0.0490 ca         1 VQA      -0.118000
      2 C11         36.9120    -8.7990    -0.2140 ca         1 VQA      -0.128000
      3 C12         36.8050    -9.5290    -1.3890 ca         1 VQA      -0.124000
      4 C13         37.6060   -11.5080    -3.5720 c2         1 VQA      -0.207000
      5 C14         36.5350    -8.1650    -4.9000 c5         1 VQA      -0.098700
      6 C15         37.4800    -6.9760    -5.1310 c5         1 VQA      -0.039200
      7 C16         38.7800    -7.5820    -5.5620 c2         1 VQA      -0.105400
      8 C17         39.9480    -6.7240    -5.9230 c3         1 VQA      -0.030200
      9 C18         40.3780    -5.8480    -4.7420 c3         1 VQA      -0.076400
     10 C19         41.7140    -5.1490    -4.9610 c3         1 VQA      -0.071400
     11 C20         42.0990    -4.2110    -3.8190 c3         1 VQA      -0.073400
     12 C21         42.1720    -4.8880    -2.4550 c3         1 VQA      -0.079400
     13 C22         42.6590    -3.9560    -1.3500 c3         1 VQA      -0.069400
     14 C02         35.4620    -8.3160    -5.9940 c5         1 VQA       0.145100
     15 C03         36.0820    -9.2890    -6.9860 c5         1 VQA      -0.073400
     16 C04         36.7550   -10.3150    -6.0840 c5         1 VQA      -0.066400
     17 C05         37.4170    -9.4560    -4.9880 c5         1 VQA       0.041400
     18 C07         37.7280    -9.3680    -2.4250 ca         1 VQA      -0.061800
     19 C08         38.7640    -8.4500    -2.2440 ca         1 VQA      -0.124000
     20 C09         38.8730    -7.7190    -1.0690 ca         1 VQA      -0.128000
     21 C23         42.4920    -4.5290     0.0550 c3         1 VQA      -0.079400
     22 C24         43.2930    -5.8000     0.3190 c3         1 VQA      -0.056400
     23 C25         43.1330    -6.3040     1.7440 c3         1 VQA      -0.206400
     24 C26         43.8970    -7.5950     2.1080 c          1 VQA       0.927600
     25 C29         38.7530    -8.9140    -5.4850 ce         1 VQA      -0.068400
     26 C30         39.8530    -9.8190    -5.8760 ca         1 VQA      -0.038800
     27 C31         40.6700   -10.4340    -4.9280 ca         1 VQA      -0.115500
     28 C32         41.6940   -11.2860    -5.3180 ca         1 VQA      -0.132000
     29 C33         41.9180   -11.5410    -6.6650 ca         1 VQA      -0.132000
     30 C34         41.1120   -10.9350    -7.6190 ca         1 VQA      -0.132000
     31 C35         40.0900   -10.0820    -7.2260 ca         1 VQA      -0.115500
     32 O01         34.2810    -8.9170    -5.4990 oh         1 VQA      -0.599800
     33 O27         44.7210    -8.0380     1.2820 o          1 VQA      -0.847300
     34 O28         43.6300    -8.0860     3.2260 o          1 VQA      -0.847300
     35 H101        38.0310    -7.3160     0.8670 ha         1 VQA       0.137000
     36 H111        36.1810    -8.9400     0.5720 ha         1 VQA       0.135500
     37 H121        35.9880   -10.2290    -1.5140 ha         1 VQA       0.131000
     38 H132        37.7590   -12.0060    -2.6230 ha         1 VQA       0.116500
     39 H131        37.4940   -12.1480    -4.4380 ha         1 VQA       0.116500
     40 H141        36.0520    -8.0700    -3.9250 hc         1 VQA       0.068700
     41 H152        37.6050    -6.3800    -4.2230 hc         1 VQA       0.052200
     42 H151        37.0970    -6.2830    -5.8900 hc         1 VQA       0.052200
     43 H171        40.7890    -7.3470    -6.2390 hc         1 VQA       0.047200
     44 H172        39.6970    -6.0830    -6.7750 hc         1 VQA       0.047200
     45 H182        39.6060    -5.1000    -4.5350 hc         1 VQA       0.043200
     46 H181        40.4400    -6.4750    -3.8500 hc         1 VQA       0.043200
     47 H191        42.4960    -5.9050    -5.0920 hc         1 VQA       0.034200
     48 H192        41.6800    -4.5820    -5.8960 hc         1 VQA       0.034200
     49 H201        43.0670    -3.7530    -4.0460 hc         1 VQA       0.030200
     50 H202        41.3790    -3.3860    -3.7700 hc         1 VQA       0.030200
     51 H212        41.1850    -5.2700    -2.1750 hc         1 VQA       0.044700
     52 H211        42.8260    -5.7640    -2.5200 hc         1 VQA       0.044700
     53 H221        43.7100    -3.7000    -1.5230 hc         1 VQA       0.022700
     54 H222        42.1050    -3.0130    -1.4130 hc         1 VQA       0.022700
     55 H021        35.2310    -7.3460    -6.4530 h1         1 VQA       0.032700
     56 H032        36.8220    -8.7640    -7.5960 hc         1 VQA       0.050200
     57 H031        35.3470    -9.7200    -7.6670 hc         1 VQA       0.050200
     58 H041        36.0010   -10.9730    -5.6480 hc         1 VQA       0.055200
     59 H042        37.4690   -10.9520    -6.6100 hc         1 VQA       0.055200
     60 H081        39.5050    -8.3090    -3.0170 ha         1 VQA       0.131000
     61 H091        39.6900    -7.0170    -0.9510 ha         1 VQA       0.135500
     62 H232        42.7820    -3.7670     0.7870 hc         1 VQA       0.023200
     63 H231        41.4290    -4.7270     0.2340 hc         1 VQA       0.023200
     64 H241        42.9840    -6.5830    -0.3790 hc         1 VQA       0.038200
     65 H242        44.3490    -5.6070     0.1060 hc         1 VQA       0.038200
     66 H251        43.4480    -5.5210     2.4450 hc         1 VQA       0.013200
     67 H252        42.0700    -6.4600     1.9600 hc         1 VQA       0.013200
     68 H311        40.5120   -10.2410    -3.8750 ha         1 VQA       0.136000
     69 H321        42.3220   -11.7490    -4.5670 ha         1 VQA       0.130000
     70 H331        42.7160   -12.2060    -6.9680 ha         1 VQA       0.126000
     71 H341        41.2790   -11.1260    -8.6720 ha         1 VQA       0.130000
     72 H351        39.4640    -9.6110    -7.9750 ha         1 VQA       0.136000
     73 H011        33.9520    -8.3790    -4.7720 ho         1 VQA       0.400000
     74 C06         37.5860   -10.1790    -3.6640 ce         1 VQA      -0.040400
@<TRIPOS>BOND
     1     1     2 ar  
     2     1    20 ar  
     3     1    35 1   
     4     2     3 ar  
     5     2    36 1   
     6     3    18 ar  
     7     3    37 1   
     8     4    38 1   
     9     4    39 1   
    10     4    74 2   
    11     5     6 1   
    12     5    14 1   
    13     5    17 1   
    14     5    40 1   
    15     6     7 1   
    16     6    41 1   
    17     6    42 1   
    18     7     8 1   
    19     7    25 2   
    20     8     9 1   
    21     8    43 1   
    22     8    44 1   
    23     9    10 1   
    24     9    45 1   
    25     9    46 1   
    26    10    11 1   
    27    10    47 1   
    28    10    48 1   
    29    11    12 1   
    30    11    49 1   
    31    11    50 1   
    32    12    13 1   
    33    12    51 1   
    34    12    52 1   
    35    13    21 1   
    36    13    53 1   
    37    13    54 1   
    38    14    15 1   
    39    14    32 1   
    40    14    55 1   
    41    15    16 1   
    42    15    56 1   
    43    15    57 1   
    44    16    17 1   
    45    16    58 1   
    46    16    59 1   
    47    17    25 1   
    48    17    74 1   
    49    18    19 ar  
    50    18    74 1   
    51    19    20 ar  
    52    19    60 1   
    53    20    61 1   
    54    21    22 1   
    55    21    62 1   
    56    21    63 1   
    57    22    23 1   
    58    22    64 1   
    59    22    65 1   
    60    23    24 1   
    61    23    66 1   
    62    23    67 1   
    63    24    33 1   
    64    24    34 1   
    65    25    26 1   
    66    26    27 ar  
    67    26    31 ar  
    68    27    28 ar  
    69    27    68 1   
    70    28    29 ar  
    71    28    69 1   
    72    29    30 ar  
    73    29    70 1   
    74    30    31 ar  
    75    30    71 1   
    76    31    72 1   
    77    32    73 1   
@<TRIPOS>SUBSTRUCTURE
     1 VQA         1 TEMP              0 ****  ****    0 ROOT
