@<TRIPOS>MOLECULE
VQA
   74    77     1     0     0
SMALL
No Charge or Current Charge


@<TRIPOS>ATOM
      1 C10         35.4390    -7.4200    -0.5690 ca         1 VQA      -0.100000
      2 C11         34.7710    -8.6120    -0.8980 ca         1 VQA      -0.110000
      3 C12         35.3010    -9.4680    -1.8790 ca         1 VQA      -0.106000
      4 C13         37.3760   -11.3040    -3.1810 c2         1 VQA      -0.307000
      5 C14         36.1640    -8.4840    -5.4440 c5         1 VQA      -0.098700
      6 C15         36.9290    -7.1090    -5.5760 c5         1 VQA      -0.039200
      7 C16         38.4140    -7.4180    -5.5330 c2         1 VQA      -0.105400
      8 C17         39.4860    -6.3650    -5.7280 c3         1 VQA      -0.030200
      9 C18         39.9950    -5.8140    -4.3800 c3         1 VQA      -0.076400
     10 C19         41.1260    -4.7720    -4.5340 c3         1 VQA      -0.071400
     11 C20         41.6190    -4.1650    -3.1990 c3         1 VQA      -0.073400
     12 C21         42.3040    -5.1760    -2.2490 c3         1 VQA      -0.079400
     13 C22         42.8620    -4.5140    -0.9680 c3         1 VQA      -0.069400
     14 C02         35.7090    -8.9470    -6.8800 c5         1 VQA       0.168300
     15 C03         36.8800    -9.8480    -7.3720 c5         1 VQA      -0.073400
     16 C04         37.2240   -10.6500    -6.0880 c5         1 VQA      -0.066400
     17 C05         37.2820    -9.5120    -5.0190 c5         1 VQA       0.041400
     18 C07         36.5000    -9.1390    -2.5420 ca         1 VQA      -0.061800
     19 C08         37.1670    -7.9450    -2.2010 ca         1 VQA      -0.106000
     20 C09         36.6390    -7.0880    -1.2210 ca         1 VQA      -0.110000
     21 C23         43.4750    -5.5050     0.0510 c3         1 VQA      -0.079400
     22 C24         44.7520    -6.2270    -0.4430 c3         1 VQA      -0.056400
     23 C25         45.3890    -7.1370     0.6360 c3         1 VQA      -0.206400
     24 C26         46.6590    -7.8110     0.0820 c          1 VQA       0.717000
     25 C29         38.5600    -8.7110    -5.2050 ce         1 VQA      -0.068400
     26 C30         39.9020    -9.3360    -5.0400 ca         1 VQA      -0.038800
     27 C31         40.3730    -9.6930    -3.7620 ca         1 VQA      -0.097500
     28 C32         41.6440   -10.2740    -3.6120 ca         1 VQA      -0.114000
     29 C33         42.4510   -10.5020    -4.7400 ca         1 VQA      -0.114000
     30 C34         41.9850   -10.1480    -6.0170 ca         1 VQA      -0.114000
     31 C35         40.7140    -9.5670    -6.1660 ca         1 VQA      -0.097500
     32 O01         34.4850    -9.6820    -6.8210 oh         1 VQA      -0.662000
     33 O27         47.7230    -7.2230     0.2030 o          1 VQA      -0.742000
     34 O28         46.5400    -8.8820    -0.4920 o          1 VQA      -0.742000
     35 H101        35.0300    -6.7570     0.1900 ha         1 VQA       0.119000
     36 H111        33.8430    -8.8720    -0.3930 ha         1 VQA       0.117500
     37 H121        34.7760   -10.3860    -2.1320 ha         1 VQA       0.113000
     38 H132        37.2210   -11.6270    -2.1520 ha         1 VQA       0.166500
     39 H131        37.8230   -12.0370    -3.8510 ha         1 VQA       0.166500
     40 H141        35.3150    -8.4170    -4.7550 hc         1 VQA       0.068700
     41 H152        36.6720    -6.4500    -4.7380 hc         1 VQA       0.052200
     42 H151        36.6660    -6.5530    -6.4830 hc         1 VQA       0.052200
     43 H171        40.3320    -6.7840    -6.2860 hc         1 VQA       0.047200
     44 H172        39.0960    -5.5390    -6.3360 hc         1 VQA       0.047200
     45 H182        39.1550    -5.3620    -3.8370 hc         1 VQA       0.043200
     46 H181        40.3530    -6.6550    -3.7750 hc         1 VQA       0.043200
     47 H191        41.9760    -5.2320    -5.0550 hc         1 VQA       0.034200
     48 H192        40.7700    -3.9560    -5.1750 hc         1 VQA       0.034200
     49 H201        42.3290    -3.3600    -3.4280 hc         1 VQA       0.030200
     50 H202        40.7720    -3.6960    -2.6820 hc         1 VQA       0.030200
     51 H212        41.5870    -5.9530    -1.9590 hc         1 VQA       0.044700
     52 H211        43.1170    -5.6730    -2.7910 hc         1 VQA       0.044700
     53 H221        43.6170    -3.7670    -1.2430 hc         1 VQA       0.022700
     54 H222        42.0490    -3.9700    -0.4710 hc         1 VQA       0.022700
     55 H021        35.5700    -8.0970    -7.5620 h1         1 VQA       0.032700
     56 H032        37.7280    -9.2500    -7.7250 hc         1 VQA       0.050200
     57 H031        36.5850   -10.4990    -8.2020 hc         1 VQA       0.050200
     58 H041        36.4370   -11.3790    -5.8610 hc         1 VQA       0.055200
     59 H042        38.1630   -11.2070    -6.1790 hc         1 VQA       0.055200
     60 H081        38.0980    -7.6800    -2.6930 ha         1 VQA       0.113000
     61 H091        37.1600    -6.1680    -0.9660 ha         1 VQA       0.117500
     62 H232        43.7160    -4.9490     0.9660 hc         1 VQA       0.023200
     63 H231        42.7190    -6.2500     0.3280 hc         1 VQA       0.023200
     64 H241        44.5130    -6.8370    -1.3220 hc         1 VQA       0.038200
     65 H242        45.4880    -5.4780    -0.7630 hc         1 VQA       0.038200
     66 H251        45.6410    -6.4770     1.4750 hc         1 VQA       0.013200
     67 H252        44.6300    -7.8910     0.8800 hc         1 VQA       0.013200
     68 H311        39.7570    -9.5160    -2.8850 ha         1 VQA       0.118000
     69 H321        42.0040   -10.5460    -2.6220 ha         1 VQA       0.112000
     70 H331        43.4350   -10.9510    -4.6240 ha         1 VQA       0.108000
     71 H341        42.6080   -10.3240    -6.8920 ha         1 VQA       0.112000
     72 H351        40.3570    -9.2940    -7.1560 ha         1 VQA       0.118000
     73 H011        33.7990    -9.0590    -6.4970 ho         1 VQA       0.439000
     74 C06         37.0490   -10.0540    -3.5870 ce         1 VQA      -0.040400
@<TRIPOS>BOND
     1     1     2 ar  
     2     1    20 ar  
     3     1    35 1   
     4     2     3 ar  
     5     2    36 1   
     6     3    18 ar  
     7     3    37 1   
     8     4    38 1   
     9     4    39 1   
    10     4    74 2   
    11     5     6 1   
    12     5    14 1   
    13     5    17 1   
    14     5    40 1   
    15     6     7 1   
    16     6    41 1   
    17     6    42 1   
    18     7     8 1   
    19     7    25 2   
    20     8     9 1   
    21     8    43 1   
    22     8    44 1   
    23     9    10 1   
    24     9    45 1   
    25     9    46 1   
    26    10    11 1   
    27    10    47 1   
    28    10    48 1   
    29    11    12 1   
    30    11    49 1   
    31    11    50 1   
    32    12    13 1   
    33    12    51 1   
    34    12    52 1   
    35    13    21 1   
    36    13    53 1   
    37    13    54 1   
    38    14    15 1   
    39    14    32 1   
    40    14    55 1   
    41    15    16 1   
    42    15    56 1   
    43    15    57 1   
    44    16    17 1   
    45    16    58 1   
    46    16    59 1   
    47    17    25 1   
    48    17    74 1   
    49    18    19 ar  
    50    18    74 1   
    51    19    20 ar  
    52    19    60 1   
    53    20    61 1   
    54    21    22 1   
    55    21    62 1   
    56    21    63 1   
    57    22    23 1   
    58    22    64 1   
    59    22    65 1   
    60    23    24 1   
    61    23    66 1   
    62    23    67 1   
    63    24    33 1   
    64    24    34 1   
    65    25    26 1   
    66    26    27 ar  
    67    26    31 ar  
    68    27    28 ar  
    69    27    68 1   
    70    28    29 ar  
    71    28    69 1   
    72    29    30 ar  
    73    29    70 1   
    74    30    31 ar  
    75    30    71 1   
    76    31    72 1   
    77    32    73 1   
@<TRIPOS>SUBSTRUCTURE
     1 VQA         1 TEMP              0 ****  ****    0 ROOT
