@<TRIPOS>MOLECULE
VQB
   24    25     1     0     0
SMALL
abcg2


@<TRIPOS>ATOM
      1 N1           0.6760    12.8140   -35.7420 nb         1 VQB      -0.147000
      2 C7          -3.4960    15.5390   -35.0220 c5         1 VQB       0.191800
      3 N2          -2.5040    12.7360   -33.9480 nv         1 VQB      -1.084000
      4 C1          -1.2000    14.6080   -34.8610 ca         1 VQB       0.281900
      5 C5          -3.0110    17.6640   -33.9250 c5         1 VQB      -0.082900
      6 C6          -4.1730    16.7170   -34.3180 c5         1 VQB      -0.082900
      7 N3          -2.1310    15.5420   -34.4530 nh         1 VQB      -0.759300
      8 C4          -1.7370    16.9540   -34.3990 c5         1 VQB       0.191800
      9 C3          -0.4520    12.3900   -35.1950 ca         1 VQB       0.136000
     10 C2          -1.4450    13.2140   -34.6720 ca         1 VQB       0.222000
     11 CL          -0.6630    10.6500   -35.0840 cl         1 VQB      -0.182000
     12 C            0.8480    14.1300   -35.7690 ca         1 VQB       0.103900
     13 N           -0.0400    15.0350   -35.3660 nb         1 VQB      -0.206000
     14 H2          -4.0160    14.5960   -34.8720 h1         1 VQB       0.048700
     15 H3          -3.2400    13.3720   -33.7010 hn         1 VQB       0.479000
     16 H4          -2.7970    11.7860   -34.1110 hn         1 VQB       0.479000
     17 H5          -2.9880    17.8110   -32.8450 hc         1 VQB       0.051700
     18 H6          -3.1040    18.6450   -34.3900 hc         1 VQB       0.051700
     19 H7          -4.9000    17.1950   -34.9720 hc         1 VQB       0.051700
     20 H8          -4.7010    16.3700   -33.4300 hc         1 VQB       0.051700
     21 H9          -1.4390    17.3090   -35.3930 h1         1 VQB       0.048700
     22 H10         -0.8880    17.0820   -33.7300 h1         1 VQB       0.048700
     23 H11          1.7850    14.4980   -36.1700 h5         1 VQB       0.056100
     24 H1          -3.4340    15.7100   -36.1040 h1         1 VQB       0.048700
@<TRIPOS>BOND
     1     1     9 ar  
     2     1    12 ar  
     3     2     6 1   
     4     2     7 1   
     5     2    14 1   
     6     2    24 1   
     7     3    10 1   
     8     3    15 1   
     9     3    16 1   
    10     4     7 1   
    11     4    10 ar  
    12     4    13 ar  
    13     5     6 1   
    14     5     8 1   
    15     5    17 1   
    16     5    18 1   
    17     6    19 1   
    18     6    20 1   
    19     7     8 1   
    20     8    21 1   
    21     8    22 1   
    22     9    10 ar  
    23     9    11 1   
    24    12    13 ar  
    25    12    23 1   
@<TRIPOS>SUBSTRUCTURE
     1 VQB         1 TEMP              0 ****  ****    0 ROOT
