@<TRIPOS>MOLECULE
VQB
   24    25     1     0     0
SMALL
No Charge or Current Charge


@<TRIPOS>ATOM
      1 N1           0.7030    12.8340   -35.9110 nb         1 VQB      -0.147000
      2 C7          -3.6000    15.5720   -34.9540 c5         1 VQB       0.191800
      3 N2          -2.5530    12.6160   -34.1810 nv         1 VQB      -1.084000
      4 C1          -1.2380    14.5800   -34.9650 ca         1 VQB       0.281900
      5 C5          -2.9550    17.7840   -34.3120 c5         1 VQB      -0.082900
      6 C6          -4.1500    16.8070   -34.1980 c5         1 VQB      -0.082900
      7 N3          -2.1760    15.5610   -34.5190 nh         1 VQB      -0.759300
      8 C4          -1.7720    16.8640   -33.9150 c5         1 VQB       0.191800
      9 C3          -0.4060    12.3350   -35.3300 ca         1 VQB       0.136000
     10 C2          -1.4380    13.1650   -34.8200 ca         1 VQB       0.222000
     11 Cl          -0.4920    10.5740   -35.2210 cl         1 VQB      -0.182000
     12 C            0.7920    14.1760   -35.9820 ca         1 VQB       0.103900
     13 N           -0.1160    15.0680   -35.5380 nb         1 VQB      -0.206000
     14 H2          -4.1500    14.6630   -34.6800 h1         1 VQB       0.048700
     15 H3          -3.1340    13.2400   -33.6240 hn         1 VQB       0.479000
     16 H4          -2.5450    11.6320   -33.9140 hn         1 VQB       0.479000
     17 H5          -3.0490    18.6530   -33.6520 hc         1 VQB       0.051700
     18 H6          -2.8410    18.1570   -35.3370 hc         1 VQB       0.051700
     19 H7          -5.0670    17.1990   -34.6510 hc         1 VQB       0.051700
     20 H8          -4.3740    16.5670   -33.1510 hc         1 VQB       0.051700
     21 H9          -0.8220    17.2540   -34.3060 h1         1 VQB       0.048700
     22 H10         -1.6830    16.7760   -32.8230 h1         1 VQB       0.048700
     23 H11          1.6890    14.5820   -36.4470 h5         1 VQB       0.056100
     24 H1          -3.6750    15.7080   -36.0420 h1         1 VQB       0.048700
@<TRIPOS>BOND
     1     1     9 ar  
     2     1    12 ar  
     3     2     6 1   
     4     2     7 1   
     5     2    14 1   
     6     2    24 1   
     7     3    10 1   
     8     3    15 1   
     9     3    16 1   
    10     4     7 1   
    11     4    10 ar  
    12     4    13 ar  
    13     5     6 1   
    14     5     8 1   
    15     5    17 1   
    16     5    18 1   
    17     6    19 1   
    18     6    20 1   
    19     7     8 1   
    20     8    21 1   
    21     8    22 1   
    22     9    10 ar  
    23     9    11 1   
    24    12    13 ar  
    25    12    23 1   
@<TRIPOS>SUBSTRUCTURE
     1 VQB         1 TEMP              0 ****  ****    0 ROOT
