@<TRIPOS>MOLECULE
VQC
   54    57     1     0     0
SMALL
No Charge or Current Charge


@<TRIPOS>ATOM
      1 C1          -3.1430     4.2680    14.1520 c6         1 VQC      -0.073400
      2 C2          -4.2970     4.3490    15.1740 c6         1 VQC       0.217300
      3 C3          -5.3210     5.3850    14.6630 c6         1 VQC      -0.072200
      4 C4          -4.6990     6.7640    14.4170 c2         1 VQC      -0.117400
      5 C5          -3.4210     6.7970    13.5470 c6         1 VQC       0.003200
      6 C6          -5.2780     7.8690    14.9210 c2         1 VQC      -0.203200
      7 C7          -2.6740     8.1850    13.7250 c6         1 VQC      -0.046700
      8 C8          -4.7580     9.2820    14.7300 c6         1 VQC      -0.040200
      9 C9          -3.6670     9.3960    13.6330 c6         1 VQC      -0.040700
     10 C10         -2.4510     5.6430    13.9830 c6         1 VQC      -0.070400
     11 C11         -1.4310     8.3640    12.7740 c6         1 VQC      -0.072400
     12 C12         -2.8850    10.7320    13.7830 c5         1 VQC      -0.061700
     13 C13         -1.7480    10.9170    12.7350 c5         1 VQC      -0.153000
     14 C14         -0.7340     9.7490    12.9180 c6         1 VQC      -0.051400
     15 C15         -2.2070    10.9790    11.2360 c3         1 VQC      -0.079100
     16 C16         -1.2400    12.3060    13.1740 c          1 VQC       0.580100
     17 C17         -3.6660    12.0790    13.7080 c5         1 VQC      -0.067400
     18 C18         -2.5240    13.1190    13.4370 c5         1 VQC      -0.191400
     19 C           -3.8860     6.5720    12.0650 c3         1 VQC      -0.080100
     20 O16         -0.1100    12.6020    13.5430 o          1 VQC      -0.511100
     21 O25         -4.9290     3.0620    15.2620 os         1 VQC      -0.574700
     22 S22         -5.0840     2.3840    16.7310 s6         1 VQC       1.393800
     23 O20         -5.7310     3.3060    17.6630 o          1 VQC      -0.572000
     24 O21         -3.8690     1.6480    17.0610 o          1 VQC      -0.572000
     25 N19         -6.1640     1.2820    16.2800 n8         1 VQC      -1.017100
     26 H1          -3.5160     3.9010    13.1870 hc         1 VQC       0.059200
     27 H2          -2.4060     3.5310    14.4960 hc         1 VQC       0.059200
     28 H3          -3.8990     4.6660    16.1510 h1         1 VQC       0.069700
     29 H4          -6.1410     5.4620    15.3900 hc         1 VQC       0.068200
     30 H5          -5.7820     5.0170    13.7370 hc         1 VQC       0.068200
     31 H6          -6.1870     7.7910    15.5190 ha         1 VQC       0.176000
     32 H7          -2.2750     8.2030    14.7500 hc         1 VQC       0.047700
     33 H8          -4.3650     9.6330    15.6950 hc         1 VQC       0.050200
     34 H9          -5.5960     9.9480    14.4810 hc         1 VQC       0.050200
     35 H10         -4.1630     9.3900    12.6550 hc         1 VQC       0.057700
     36 H11         -1.6350     5.5350    13.2580 hc         1 VQC       0.046700
     37 H12         -1.9740     5.9040    14.9380 hc         1 VQC       0.046700
     38 H13         -1.7170     8.2230    11.7260 hc         1 VQC       0.042200
     39 H14         -0.6840     7.5880    12.9830 hc         1 VQC       0.042200
     40 H15         -2.4340    10.6660    14.7830 hc         1 VQC       0.047700
     41 H16          0.0880     9.8370    12.1930 hc         1 VQC       0.051200
     42 H17         -0.2700     9.8120    13.9130 hc         1 VQC       0.051200
     43 H18         -2.8980    11.8050    11.0360 hc         1 VQC       0.040700
     44 H19         -1.3450    11.1200    10.5720 hc         1 VQC       0.040700
     45 H20         -2.7180    10.0650    10.9150 hc         1 VQC       0.040700
     46 H21         -4.2080    12.2930    14.6370 hc         1 VQC       0.049700
     47 H22         -4.4060    12.0730    12.8990 hc         1 VQC       0.049700
     48 H23         -2.3600    13.8420    14.2420 hc         1 VQC       0.072200
     49 H24         -2.7680    13.6680    12.5210 hc         1 VQC       0.072200
     50 H25         -4.4700     5.6530    11.9500 hc         1 VQC       0.036367
     51 H26         -4.5200     7.3880    11.7040 hc         1 VQC       0.036367
     52 H27         -3.0390     6.4780    11.3760 hc         1 VQC       0.036367
     53 H28         -6.1360     1.4970    15.2870 hn         1 VQC       0.483500
     54 H29         -5.5800     0.4560    16.3640 hn         1 VQC       0.483500
@<TRIPOS>BOND
     1     1     2 1   
     2     1    10 1   
     3     1    26 1   
     4     1    27 1   
     5     2     3 1   
     6     2    21 1   
     7     2    28 1   
     8     3     4 1   
     9     3    29 1   
    10     3    30 1   
    11     4     5 1   
    12     4     6 2   
    13     5     7 1   
    14     5    10 1   
    15     5    19 1   
    16     6     8 1   
    17     6    31 1   
    18     7     9 1   
    19     7    11 1   
    20     7    32 1   
    21     8     9 1   
    22     8    33 1   
    23     8    34 1   
    24     9    12 1   
    25     9    35 1   
    26    10    36 1   
    27    10    37 1   
    28    11    14 1   
    29    11    38 1   
    30    11    39 1   
    31    12    13 1   
    32    12    17 1   
    33    12    40 1   
    34    13    14 1   
    35    13    15 1   
    36    13    16 1   
    37    14    41 1   
    38    14    42 1   
    39    15    43 1   
    40    15    44 1   
    41    15    45 1   
    42    16    18 1   
    43    16    20 2   
    44    17    18 1   
    45    17    46 1   
    46    17    47 1   
    47    18    48 1   
    48    18    49 1   
    49    19    50 1   
    50    19    51 1   
    51    19    52 1   
    52    21    22 1   
    53    22    23 2   
    54    22    24 2   
    55    22    25 1   
    56    25    53 1   
    57    25    54 1   
@<TRIPOS>SUBSTRUCTURE
     1 VQC         1 TEMP              0 ****  ****    0 ROOT
