@<TRIPOS>MOLECULE
VQC
   54    57     1     0     0
SMALL
abcg2


@<TRIPOS>ATOM
      1 C1          -3.0540     4.3350    14.0590 c6         1 VQC      -0.073400
      2 C2          -4.1640     4.3920    15.0840 c6         1 VQC       0.217300
      3 C3          -5.2070     5.4270    14.6930 c6         1 VQC      -0.072200
      4 C4          -4.5750     6.7790    14.4740 c2         1 VQC      -0.117400
      5 C5          -3.3820     6.8380    13.5340 c6         1 VQC       0.003200
      6 C6          -5.0740     7.8530    15.0830 c2         1 VQC      -0.203200
      7 C7          -2.6490     8.1960    13.6860 c6         1 VQC      -0.046700
      8 C8          -4.5730     9.2470    14.8980 c6         1 VQC      -0.040200
      9 C9          -3.6300     9.3820    13.7080 c6         1 VQC      -0.040700
     10 C10         -2.4080     5.7090    13.9320 c6         1 VQC      -0.070400
     11 C11         -1.5140     8.3710    12.6630 c6         1 VQC      -0.072400
     12 C12         -2.8410    10.6760    13.7960 c5         1 VQC      -0.061700
     13 C13         -1.8270    10.8470    12.6630 c5         1 VQC      -0.153000
     14 C14         -0.8050     9.7260    12.7430 c6         1 VQC      -0.051400
     15 C15         -2.4690    10.9180    11.2650 c3         1 VQC      -0.079100
     16 C16         -1.3280    12.2520    12.9310 c          1 VQC       0.580100
     17 C17         -3.5740    12.0170    13.8550 c5         1 VQC      -0.067400
     18 C18         -2.4410    13.0280    13.6240 c5         1 VQC      -0.191400
     19 C           -3.8790     6.6200    12.0960 c3         1 VQC      -0.080100
     20 O16         -0.2390    12.6890    12.6460 o          1 VQC      -0.511100
     21 O25         -4.7450     3.0600    15.1340 os         1 VQC      -0.574700
     22 S22         -5.5710     2.6170    16.4240 s6         1 VQC       1.393800
     23 O20         -6.9340     3.0990    16.3450 o          1 VQC      -0.572000
     24 O21         -4.7920     2.9510    17.6010 o          1 VQC      -0.572000
     25 N19         -5.6040     1.0170    16.0890 n8         1 VQC      -1.017100
     26 H1          -3.4590     4.0090    13.0960 hc         1 VQC       0.059200
     27 H2          -2.3010     3.6030    14.3580 hc         1 VQC       0.059200
     28 H3          -3.7400     4.6360    16.0640 h1         1 VQC       0.069700
     29 H4          -5.9810     5.5120    15.4570 hc         1 VQC       0.068200
     30 H5          -5.7000     5.0820    13.7770 hc         1 VQC       0.068200
     31 H6          -5.9120     7.7250    15.7630 ha         1 VQC       0.176000
     32 H7          -2.1780     8.1840    14.6810 hc         1 VQC       0.047700
     33 H8          -4.0630     9.5720    15.8140 hc         1 VQC       0.050200
     34 H9          -5.4230     9.9270    14.7860 hc         1 VQC       0.050200
     35 H10         -4.2290     9.3820    12.7900 hc         1 VQC       0.057700
     36 H11         -1.5960     5.6460    13.2060 hc         1 VQC       0.046700
     37 H12         -1.9460     5.9700    14.8910 hc         1 VQC       0.046700
     38 H13         -1.8950     8.2320    11.6490 hc         1 VQC       0.042200
     39 H14         -0.7700     7.5850    12.8090 hc         1 VQC       0.042200
     40 H15         -2.2480    10.6130    14.7230 hc         1 VQC       0.047700
     41 H16         -0.0670     9.8030    11.9400 hc         1 VQC       0.051200
     42 H17         -0.2540     9.8000    13.6860 hc         1 VQC       0.051200
     43 H18         -3.1870    11.7350    11.1660 hc         1 VQC       0.040700
     44 H19         -1.6950    11.0730    10.5110 hc         1 VQC       0.040700
     45 H20         -2.9950     9.9990    11.0100 hc         1 VQC       0.040700
     46 H21         -4.0750    12.1760    14.8100 hc         1 VQC       0.049700
     47 H22         -4.3360    12.0900    13.0760 hc         1 VQC       0.049700
     48 H23         -2.0500    13.4120    14.5700 hc         1 VQC       0.072200
     49 H24         -2.7300    13.8990    13.0320 hc         1 VQC       0.072200
     50 H25         -4.5450     5.7610    12.0220 hc         1 VQC       0.036367
     51 H26         -4.4350     7.4860    11.7330 hc         1 VQC       0.036367
     52 H27         -3.0550     6.4360    11.4060 hc         1 VQC       0.036367
     53 H28         -4.7540     0.5250    16.3430 hn         1 VQC       0.483500
     54 H29         -6.4220     0.5650    16.4820 hn         1 VQC       0.483500
@<TRIPOS>BOND
     1     1     2 1   
     2     1    10 1   
     3     1    26 1   
     4     1    27 1   
     5     2     3 1   
     6     2    21 1   
     7     2    28 1   
     8     3     4 1   
     9     3    29 1   
    10     3    30 1   
    11     4     5 1   
    12     4     6 2   
    13     5     7 1   
    14     5    10 1   
    15     5    19 1   
    16     6     8 1   
    17     6    31 1   
    18     7     9 1   
    19     7    11 1   
    20     7    32 1   
    21     8     9 1   
    22     8    33 1   
    23     8    34 1   
    24     9    12 1   
    25     9    35 1   
    26    10    36 1   
    27    10    37 1   
    28    11    14 1   
    29    11    38 1   
    30    11    39 1   
    31    12    13 1   
    32    12    17 1   
    33    12    40 1   
    34    13    14 1   
    35    13    15 1   
    36    13    16 1   
    37    14    41 1   
    38    14    42 1   
    39    15    43 1   
    40    15    44 1   
    41    15    45 1   
    42    16    18 1   
    43    16    20 2   
    44    17    18 1   
    45    17    46 1   
    46    17    47 1   
    47    18    48 1   
    48    18    49 1   
    49    19    50 1   
    50    19    51 1   
    51    19    52 1   
    52    21    22 1   
    53    22    23 2   
    54    22    24 2   
    55    22    25 1   
    56    25    53 1   
    57    25    54 1   
@<TRIPOS>SUBSTRUCTURE
     1 VQC         1 TEMP              0 ****  ****    0 ROOT
