@<TRIPOS>MOLECULE
VQD
   63    67     1     0     0
SMALL
No Charge or Current Charge


@<TRIPOS>ATOM
      1 C10        -80.0140   -73.3510     9.3570 ca         1 VQD      -0.105000
      2 C11        -78.8220   -73.2670     8.6160 ca         1 VQD      -0.101000
      3 C12        -77.5900   -73.1240     9.2780 ca         1 VQD      -0.105000
      4 C13        -77.5480   -73.0690    10.6820 ca         1 VQD      -0.095000
      5 C14        -78.7390   -73.1530    11.4270 ca         1 VQD      -0.030000
      6 C15        -78.7030   -73.1030    12.8330 ca         1 VQD      -0.087000
      7 C16        -79.8950   -73.1870    13.5720 ca         1 VQD      -0.098000
      8 C18        -83.7490   -70.7080    12.4930 cc         1 VQD      -0.198000
      9 C19        -83.3520   -69.5290    11.9250 cd         1 VQD       0.178300
     10 C20        -84.0540   -68.7920    10.7960 c6         1 VQD       0.054400
     11 C21        -85.5810   -68.6470    11.0530 c6         1 VQD       0.140600
     12 C04        -84.0460   -72.1200    15.2940 c3         1 VQD      -0.181400
     13 C05        -82.7560   -72.0450    14.4340 c3         1 VQD       0.097300
     14 C07        -81.1340   -73.3160    12.9140 ca         1 VQD      -0.086300
     15 C08        -81.1690   -73.3690    11.5070 ca         1 VQD      -0.086000
     16 C09        -79.9770   -73.2910    10.7630 ca         1 VQD      -0.034000
     17 C23        -86.1010   -70.4160     9.5110 c6         1 VQD       0.132600
     18 C24        -84.6010   -70.6500     9.1950 c6         1 VQD       0.069000
     19 C27        -82.6180   -69.4410     7.2070 ca         1 VQD      -0.134600
     20 C28        -82.5410   -68.7620     5.9690 ca         1 VQD      -0.055000
     21 C29        -82.0420   -69.4080     4.8240 ca         1 VQD      -0.137000
     22 C30        -81.6030   -70.7380     4.9050 ca         1 VQD       0.150000
     23 C32        -81.6490   -71.4180     6.1340 ca         1 VQD       0.121000
     24 C34        -82.1410   -70.7730     7.2820 ca         1 VQD      -0.103000
     25 F31        -81.1280   -71.3540     3.7980 f          1 VQD      -0.157000
     26 F33        -81.2190   -72.6980     6.2190 f          1 VQD      -0.162000
     27 N02        -84.6950   -74.2450    16.3660 ns         1 VQD      -0.389400
     28 N17        -82.8160   -70.9210    13.4760 na         1 VQD       0.122800
     29 N25        -83.7600   -69.4390     9.4690 n          1 VQD      -0.408800
     30 N36        -82.2140   -69.0800    12.5640 nd         1 VQD      -0.340000
     31 N37        -81.8870   -69.9240    13.5060 nc         1 VQD      -0.183800
     32 O01        -84.4790   -75.3720    17.2500 oh         1 VQD      -0.416100
     33 O22        -86.2590   -69.9060    10.8500 os         1 VQD      -0.450000
     34 O35        -82.9850   -67.4940     8.5210 o          1 VQD      -0.573100
     35 O38        -83.1650   -72.8880    17.4040 o          1 VQD      -0.561100
     36 H1         -80.9620   -73.4680     8.8390 ha         1 VQD       0.107000
     37 H2         -78.8520   -73.3140     7.5300 ha         1 VQD       0.118000
     38 H3         -76.6690   -73.0600     8.7030 ha         1 VQD       0.114000
     39 H4         -76.5910   -72.9620    11.1870 ha         1 VQD       0.115000
     40 H5         -77.7540   -73.0000    13.3530 ha         1 VQD       0.117000
     41 H6         -79.8540   -73.1490    14.6580 ha         1 VQD       0.118000
     42 H7         -84.5830   -71.3670    12.2940 h4         1 VQD       0.171000
     43 H8         -83.6500   -67.7710    10.8020 h1         1 VQD       0.115700
     44 H9         -86.0030   -67.8990    10.3680 h1         1 VQD       0.061200
     45 H10        -85.7600   -68.3010    12.0820 h1         1 VQD       0.061200
     46 H11        -84.2300   -71.1280    15.7220 hc         1 VQD       0.074200
     47 H12        -84.8930   -72.4010    14.6560 hc         1 VQD       0.074200
     48 H13        -81.9240   -71.8270    15.1180 h1         1 VQD       0.119700
     49 H14        -83.2670   -73.6640    13.0760 hc         1 VQD       0.059700
     50 H15        -82.3370   -74.1840    14.4670 hc         1 VQD       0.059700
     51 H16        -82.1220   -73.4660    10.9910 ha         1 VQD       0.104000
     52 H17        -86.5280   -69.6980     8.7970 h1         1 VQD       0.053700
     53 H18        -86.6560   -71.3610     9.4180 h1         1 VQD       0.053700
     54 H19        -84.2270   -71.4920     9.7950 h1         1 VQD       0.057700
     55 H20        -84.5330   -70.9460     8.1410 h1         1 VQD       0.057700
     56 H21        -82.8820   -67.7300     5.8900 ha         1 VQD       0.138000
     57 H22        -81.9980   -68.8800     3.8740 ha         1 VQD       0.140000
     58 H23        -82.1360   -71.3090     8.2280 ha         1 VQD       0.144000
     59 H24        -85.1950   -74.4440    15.5000 hn         1 VQD       0.338500
     60 H25        -85.3800   -75.5710    17.6000 ho         1 VQD       0.447000
     61 C06        -82.4260   -73.3840    13.7220 c3         1 VQD      -0.043100
     62 C03        -83.9020   -73.1070    16.4530 c          1 VQD       0.604100
     63 C26        -83.1500   -68.7030     8.4210 c          1 VQD       0.626700
@<TRIPOS>BOND
     1     1     2 ar  
     2     1    16 ar  
     3     1    36 1   
     4     2     3 ar  
     5     2    37 1   
     6     3     4 ar  
     7     3    38 1   
     8     4     5 ar  
     9     4    39 1   
    10     5     6 ar  
    11     5    16 ar  
    12     6     7 ar  
    13     6    40 1   
    14     7    14 ar  
    15     7    41 1   
    16     8     9 2   
    17     8    28 1   
    18     8    42 1   
    19     9    10 1   
    20     9    30 1   
    21    10    11 1   
    22    10    29 1   
    23    10    43 1   
    24    11    33 1   
    25    11    44 1   
    26    11    45 1   
    27    12    13 1   
    28    12    46 1   
    29    12    47 1   
    30    12    62 1   
    31    13    28 1   
    32    13    48 1   
    33    13    61 1   
    34    14    15 ar  
    35    14    61 1   
    36    15    16 ar  
    37    15    51 1   
    38    17    18 1   
    39    17    33 1   
    40    17    52 1   
    41    17    53 1   
    42    18    29 1   
    43    18    54 1   
    44    18    55 1   
    45    19    20 ar  
    46    19    24 ar  
    47    19    63 1   
    48    20    21 ar  
    49    20    56 1   
    50    21    22 ar  
    51    21    57 1   
    52    22    23 ar  
    53    22    25 1   
    54    23    24 ar  
    55    23    26 1   
    56    24    58 1   
    57    27    32 1   
    58    27    59 1   
    59    27    62 1   
    60    28    31 1   
    61    29    63 1   
    62    30    31 2   
    63    32    60 1   
    64    34    63 2   
    65    35    62 2   
    66    49    61 1   
    67    50    61 1   
@<TRIPOS>SUBSTRUCTURE
     1 VQD         1 TEMP              0 ****  ****    0 ROOT
