@<TRIPOS>MOLECULE
VQD
   63    67     1     0     0
SMALL
abcg2


@<TRIPOS>ATOM
      1 C10        -79.9620   -73.3050     9.3200 ca         1 VQD      -0.105000
      2 C11        -78.7830   -73.2070     8.6320 ca         1 VQD      -0.101000
      3 C12        -77.5600   -73.1030     9.3260 ca         1 VQD      -0.105000
      4 C13        -77.5420   -73.1030    10.6950 ca         1 VQD      -0.095000
      5 C14        -78.7450   -73.2010    11.4310 ca         1 VQD      -0.030000
      6 C15        -78.7630   -73.2140    12.8460 ca         1 VQD      -0.087000
      7 C16        -79.9420   -73.3130    13.5270 ca         1 VQD      -0.098000
      8 C18        -83.8810   -70.8320    12.5120 cc         1 VQD      -0.198000
      9 C19        -83.4650   -69.7180    11.8270 cd         1 VQD       0.178300
     10 C20        -84.1300   -68.9200    10.7500 c6         1 VQD       0.054400
     11 C21        -85.6430   -68.8480    10.9100 c6         1 VQD       0.140600
     12 C04        -84.0210   -72.2380    15.2070 c3         1 VQD      -0.181400
     13 C05        -82.7640   -72.1530    14.3470 c3         1 VQD       0.097300
     14 C07        -81.1790   -73.3980    12.8410 ca         1 VQD      -0.086300
     15 C08        -81.1810   -73.3870    11.4720 ca         1 VQD      -0.086000
     16 C09        -79.9760   -73.2980    10.7340 ca         1 VQD      -0.034000
     17 C23        -85.9920   -70.5380     9.3670 c6         1 VQD       0.132600
     18 C24        -84.5030   -70.6880     9.0990 c6         1 VQD       0.069000
     19 C27        -82.5730   -69.3940     7.3190 ca         1 VQD      -0.134600
     20 C28        -82.6860   -68.6640     6.1410 ca         1 VQD      -0.055000
     21 C29        -82.2440   -69.1960     4.9390 ca         1 VQD      -0.137000
     22 C30        -81.6650   -70.4480     4.9270 ca         1 VQD       0.150000
     23 C32        -81.5310   -71.1690     6.1020 ca         1 VQD       0.121000
     24 C34        -81.9790   -70.6530     7.2980 ca         1 VQD      -0.103000
     25 F31        -81.2280   -70.9800     3.7850 f          1 VQD      -0.157000
     26 F33        -80.9660   -72.3800     6.0590 f          1 VQD      -0.162000
     27 N02        -84.8040   -73.9570    16.6710 ns         1 VQD      -0.389400
     28 N17        -82.8850   -71.0740    13.3810 na         1 VQD       0.122800
     29 N25        -83.8080   -69.4530     9.4260 n          1 VQD      -0.408800
     30 N36        -82.2520   -69.3690    12.3120 nd         1 VQD      -0.340000
     31 N37        -81.9130   -70.1890    13.2430 nc         1 VQD      -0.183800
     32 O01        -84.7090   -74.8760    17.6690 oh         1 VQD      -0.416100
     33 O22        -86.2490   -70.0960    10.6800 os         1 VQD      -0.450000
     34 O35        -82.5910   -67.6290     8.8640 o          1 VQD      -0.573100
     35 O38        -82.7810   -73.0390    17.1020 o          1 VQD      -0.561100
     36 H1         -80.9010   -73.4000     8.7880 ha         1 VQD       0.107000
     37 H2         -78.7840   -73.2090     7.5500 ha         1 VQD       0.118000
     38 H3         -76.6340   -73.0260     8.7710 ha         1 VQD       0.114000
     39 H4         -76.6030   -73.0280    11.2310 ha         1 VQD       0.115000
     40 H5         -77.8250   -73.1490    13.3850 ha         1 VQD       0.117000
     41 H6         -79.9350   -73.3310    14.6110 ha         1 VQD       0.118000
     42 H7         -84.7710   -71.4360    12.4550 h4         1 VQD       0.171000
     43 H8         -83.7420   -67.9030    10.8040 h1         1 VQD       0.115700
     44 H9         -86.0340   -68.0940    10.2140 h1         1 VQD       0.061200
     45 H10        -85.8960   -68.5350    11.9240 h1         1 VQD       0.061200
     46 H11        -84.2750   -71.2410    15.5790 hc         1 VQD       0.074200
     47 H12        -84.8720   -72.5860    14.6170 hc         1 VQD       0.074200
     48 H13        -81.9230   -71.8730    14.9820 h1         1 VQD       0.119700
     49 H14        -83.2910   -73.7460    12.9900 hc         1 VQD       0.059700
     50 H15        -82.3630   -74.2550    14.3910 hc         1 VQD       0.059700
     51 H16        -82.1180   -73.4550    10.9290 ha         1 VQD       0.104000
     52 H17        -86.4240   -69.8390     8.6370 h1         1 VQD       0.053700
     53 H18        -86.4800   -71.5040     9.2410 h1         1 VQD       0.053700
     54 H19        -84.0900   -71.5150     9.6850 h1         1 VQD       0.057700
     55 H20        -84.3720   -70.9350     8.0490 h1         1 VQD       0.057700
     56 H21        -83.1330   -67.6800     6.1520 ha         1 VQD       0.138000
     57 H22        -82.3430   -68.6420     4.0150 ha         1 VQD       0.140000
     58 H23        -81.8580   -71.2320     8.2060 ha         1 VQD       0.144000
     59 H24        -85.5610   -74.1090    16.0200 hn         1 VQD       0.338500
     60 H25        -85.1410   -74.4860    18.4400 ho         1 VQD       0.447000
     61 C06        -82.4510   -73.4720    13.6330 c3         1 VQD      -0.043100
     62 C03        -83.7840   -73.1210    16.4160 c          1 VQD       0.604100
     63 C26        -82.9960   -68.7520     8.6040 c          1 VQD       0.626700
@<TRIPOS>BOND
     1     1     2 ar  
     2     1    16 ar  
     3     1    36 1   
     4     2     3 ar  
     5     2    37 1   
     6     3     4 ar  
     7     3    38 1   
     8     4     5 ar  
     9     4    39 1   
    10     5     6 ar  
    11     5    16 ar  
    12     6     7 ar  
    13     6    40 1   
    14     7    14 ar  
    15     7    41 1   
    16     8     9 2   
    17     8    28 1   
    18     8    42 1   
    19     9    10 1   
    20     9    30 1   
    21    10    11 1   
    22    10    29 1   
    23    10    43 1   
    24    11    33 1   
    25    11    44 1   
    26    11    45 1   
    27    12    13 1   
    28    12    46 1   
    29    12    47 1   
    30    12    62 1   
    31    13    28 1   
    32    13    48 1   
    33    13    61 1   
    34    14    15 ar  
    35    14    61 1   
    36    15    16 ar  
    37    15    51 1   
    38    17    18 1   
    39    17    33 1   
    40    17    52 1   
    41    17    53 1   
    42    18    29 1   
    43    18    54 1   
    44    18    55 1   
    45    19    20 ar  
    46    19    24 ar  
    47    19    63 1   
    48    20    21 ar  
    49    20    56 1   
    50    21    22 ar  
    51    21    57 1   
    52    22    23 ar  
    53    22    25 1   
    54    23    24 ar  
    55    23    26 1   
    56    24    58 1   
    57    27    32 1   
    58    27    59 1   
    59    27    62 1   
    60    28    31 1   
    61    29    63 1   
    62    30    31 2   
    63    32    60 1   
    64    34    63 2   
    65    35    62 2   
    66    49    61 1   
    67    50    61 1   
@<TRIPOS>SUBSTRUCTURE
     1 VQD         1 TEMP              0 ****  ****    0 ROOT
