@<TRIPOS>MOLECULE
VQF
   29    29     1     0     0
SMALL
abcg2


@<TRIPOS>ATOM
      1 N1          -1.4380    12.5180   -34.5810 n          1 VQF      -0.387400
      2 C7          -1.6190    11.2350   -33.8930 c3         1 VQF       0.090300
      3 C8           1.2670    13.9890   -36.6400 c3         1 VQF       0.103300
      4 N2          -0.1830    16.1330   -35.7620 n2         1 VQF      -0.795100
      5 O1          -3.2620    13.4280   -33.5860 o          1 VQF      -0.515000
      6 C1          -3.5110    16.8550   -35.9380 c3         1 VQF      -0.080400
      7 C5          -0.3210    12.6130   -35.4170 c          1 VQF       0.623000
      8 C6          -2.3510    13.5330   -34.3850 c          1 VQF       0.581000
      9 C4          -0.7450    15.0010   -35.6420 c2         1 VQF       0.482900
     10 C3          -2.1950    14.7390   -35.2980 c6         1 VQF      -0.240000
     11 C2          -2.9740    15.9620   -34.8120 c3         1 VQF      -0.073400
     12 C           -4.6490    16.2120   -36.7300 c3         1 VQF      -0.092100
     13 O            0.3680    11.6290   -35.6240 o          1 VQF      -0.542000
     14 N           -0.0110    13.8510   -35.9360 n          1 VQF      -0.344300
     15 H1          -2.4810    11.3280   -33.2430 h1         1 VQF       0.059700
     16 H2          -1.7850    10.4430   -34.6210 h1         1 VQF       0.059700
     17 H3          -0.7340    11.0010   -33.3060 h1         1 VQF       0.059700
     18 H4           1.5110    13.0370   -37.0980 h1         1 VQF       0.057700
     19 H5           1.1600    14.7580   -37.3980 h1         1 VQF       0.057700
     20 H6           2.0620    14.2770   -35.9510 h1         1 VQF       0.057700
     21 H7          -0.8270    16.8890   -35.5520 hn         1 VQF       0.406400
     22 H8          -2.7070    17.1380   -36.6230 hc         1 VQF       0.044700
     23 H9          -3.8690    17.7840   -35.4870 hc         1 VQF       0.044700
     24 H10         -2.6370    14.3850   -36.2410 hc         1 VQF       0.098700
     25 H11         -2.3430    16.5420   -34.1340 hc         1 VQF       0.066700
     26 H12         -3.8140    15.6040   -34.2180 hc         1 VQF       0.066700
     27 H13         -5.0110    16.8850   -37.5090 hc         1 VQF       0.037033
     28 H14         -4.3320    15.2870   -37.2190 hc         1 VQF       0.037033
     29 H15         -5.4890    15.9700   -36.0740 hc         1 VQF       0.037033
@<TRIPOS>BOND
     1     1     2 1   
     2     1     7 1   
     3     1     8 1   
     4     2    15 1   
     5     2    16 1   
     6     2    17 1   
     7     3    14 1   
     8     3    18 1   
     9     3    19 1   
    10     3    20 1   
    11     4     9 2   
    12     4    21 1   
    13     5     8 2   
    14     6    11 1   
    15     6    12 1   
    16     6    22 1   
    17     6    23 1   
    18     7    13 2   
    19     7    14 1   
    20     8    10 1   
    21     9    10 1   
    22     9    14 1   
    23    10    11 1   
    24    10    24 1   
    25    11    25 1   
    26    11    26 1   
    27    12    27 1   
    28    12    28 1   
    29    12    29 1   
@<TRIPOS>SUBSTRUCTURE
     1 VQF         1 TEMP              0 ****  ****    0 ROOT
