@<TRIPOS>MOLECULE
VQF
   29    29     1     0     0
SMALL
No Charge or Current Charge


@<TRIPOS>ATOM
      1 N1          -1.4030    12.4710   -34.4940 n          1 VQF      -0.387400
      2 C7          -1.5090    11.2210   -33.6990 c3         1 VQF       0.090300
      3 C8           1.0030    13.9970   -36.9580 c3         1 VQF       0.103300
      4 N2          -0.2860    16.1040   -35.4170 n2         1 VQF      -0.795100
      5 O1          -2.7110    13.6660   -33.0350 o          1 VQF      -0.515000
      6 C1          -3.5020    16.9000   -35.8990 c3         1 VQF      -0.080400
      7 C5          -0.3790    12.5750   -35.4510 c          1 VQF       0.623000
      8 C6          -2.2010    13.5600   -34.1420 c          1 VQF       0.581000
      9 C4          -0.8410    14.9570   -35.5350 c2         1 VQF       0.482900
     10 C3          -2.2740    14.6570   -35.1930 c6         1 VQF      -0.240000
     11 C2          -3.1790    15.8750   -34.7800 c3         1 VQF      -0.073400
     12 C           -4.3160    16.3200   -37.0750 c3         1 VQF      -0.092100
     13 O            0.2800    11.5980   -35.7820 o          1 VQF      -0.542000
     14 N           -0.1060    13.8540   -35.9830 n          1 VQF      -0.344300
     15 H1          -2.4880    11.1540   -33.2070 h1         1 VQF       0.059700
     16 H2          -1.3980    10.3440   -34.3490 h1         1 VQF       0.059700
     17 H3          -0.7220    11.2010   -32.9330 h1         1 VQF       0.059700
     18 H4           0.9560    13.1960   -37.7060 h1         1 VQF       0.057700
     19 H5           0.9340    14.9590   -37.4810 h1         1 VQF       0.057700
     20 H6           1.9650    13.9440   -36.4320 h1         1 VQF       0.057700
     21 H7          -0.9840    16.7770   -35.0730 hn         1 VQF       0.406400
     22 H8          -2.5790    17.3440   -36.2890 hc         1 VQF       0.044700
     23 H9          -4.0760    17.7240   -35.4560 hc         1 VQF       0.044700
     24 H10         -2.6750    14.1800   -36.0960 hc         1 VQF       0.098700
     25 H11         -2.7280    16.4080   -33.9320 hc         1 VQF       0.066700
     26 H12         -4.1390    15.4980   -34.4040 hc         1 VQF       0.066700
     27 H13         -4.5960    17.1200   -37.7710 hc         1 VQF       0.037033
     28 H14         -3.7330    15.5780   -37.6330 hc         1 VQF       0.037033
     29 H15         -5.2360    15.8440   -36.7150 hc         1 VQF       0.037033
@<TRIPOS>BOND
     1     1     2 1   
     2     1     7 1   
     3     1     8 1   
     4     2    15 1   
     5     2    16 1   
     6     2    17 1   
     7     3    14 1   
     8     3    18 1   
     9     3    19 1   
    10     3    20 1   
    11     4     9 2   
    12     4    21 1   
    13     5     8 2   
    14     6    11 1   
    15     6    12 1   
    16     6    22 1   
    17     6    23 1   
    18     7    13 2   
    19     7    14 1   
    20     8    10 1   
    21     9    10 1   
    22     9    14 1   
    23    10    11 1   
    24    10    24 1   
    25    11    25 1   
    26    11    26 1   
    27    12    27 1   
    28    12    28 1   
    29    12    29 1   
@<TRIPOS>SUBSTRUCTURE
     1 VQF         1 TEMP              0 ****  ****    0 ROOT
