@<TRIPOS>MOLECULE
VQG
   62    65     1     0     0
SMALL
bcc


@<TRIPOS>ATOM
      1 C03        -85.1860   -73.7880    15.8600 c          1 VQG       0.669100
      2 C04        -85.4640   -73.0420    14.5720 c3         1 VQG      -0.183400
      3 C05        -84.2210   -72.9810    13.6910 c3         1 VQG       0.068000
      4 C06        -83.8580   -74.3440    13.0860 c3         1 VQG      -0.038100
      5 C07        -82.5770   -74.2900    12.3050 ca         1 VQG      -0.097300
      6 C08        -82.5670   -73.9680    10.9550 ca         1 VQG      -0.115000
      7 C09        -81.3820   -73.8410    10.2310 ca         1 VQG      -0.065300
      8 C10        -81.4420   -73.4250     8.7840 c6         1 VQG      -0.031100
      9 C11        -80.1540   -73.7050     8.0230 c6         1 VQG      -0.074400
     10 C12        -78.9590   -73.2080     8.8230 c6         1 VQG      -0.074400
     11 C13        -78.8510   -73.9720    10.1350 c6         1 VQG      -0.031100
     12 C14        -80.1630   -74.0630    10.8750 ca         1 VQG      -0.057300
     13 C15        -80.1720   -74.3980    12.2290 ca         1 VQG      -0.124000
     14 C16        -81.3550   -74.5060    12.9380 ca         1 VQG      -0.113000
     15 C18        -85.4190   -71.8920    11.7560 cc         1 VQG      -0.246600
     16 C19        -85.0570   -70.8450    10.9490 cd         1 VQG       0.243600
     17 C20        -85.7900   -70.2250     9.8020 c3         1 VQG       0.094400
     18 C23        -84.4540   -70.1790     6.2560 ca         1 VQG      -0.139600
     19 C24        -84.8540   -69.5950     5.0590 ca         1 VQG      -0.066000
     20 C25        -84.3190   -70.0160     3.8520 ca         1 VQG      -0.158000
     21 C26        -83.3660   -71.0130     3.8490 ca         1 VQG       0.117900
     22 C28        -82.9490   -71.5860     5.0380 ca         1 VQG       0.085900
     23 C30        -83.4850   -71.1800     6.2410 ca         1 VQG      -0.125000
     24 C32        -87.2540   -70.6460     9.7620 c3         1 VQG      -0.114100
     25 F27        -82.8320   -71.4350     2.7030 f          1 VQG      -0.120900
     26 F29        -82.0100   -72.5350     5.0040 f          1 VQG      -0.125900
     27 N02        -86.1770   -74.6290    16.2140 ns         1 VQG      -0.450400
     28 N17        -84.4080   -71.9980    12.6350 na         1 VQG       0.104400
     29 N21        -85.1150   -70.5410     8.5530 ns         1 VQG      -0.555900
     30 N33        -83.8580   -70.3920    11.3780 nd         1 VQG      -0.341000
     31 N34        -83.4770   -71.0920    12.3880 nc         1 VQG      -0.177800
     32 O01        -86.1810   -75.1740    17.4620 oh         1 VQG      -0.383100
     33 O31        -85.5310   -68.5440     7.5810 o          1 VQG      -0.594100
     34 O35        -84.1620   -73.6390    16.4990 o          1 VQG      -0.554100
     35 H1         -85.7640   -72.0280    14.8490 hc         1 VQG       0.073700
     36 H2         -86.3010   -73.4850    14.0270 hc         1 VQG       0.073700
     37 H3         -83.3810   -72.6100    14.2780 h1         1 VQG       0.121700
     38 H4         -84.6860   -74.6900    12.4620 hc         1 VQG       0.057200
     39 H5         -83.7600   -75.0630    13.9030 hc         1 VQG       0.057200
     40 H6         -83.5090   -73.8030    10.4410 ha         1 VQG       0.118000
     41 H7         -81.6470   -72.3490     8.7470 hc         1 VQG       0.045200
     42 H8         -82.2920   -73.9080     8.2950 hc         1 VQG       0.045200
     43 H9         -80.0510   -74.7800     7.8450 hc         1 VQG       0.045700
     44 H10        -80.1960   -73.2260     7.0440 hc         1 VQG       0.045700
     45 H11        -78.0340   -73.3220     8.2530 hc         1 VQG       0.045700
     46 H12        -79.0750   -72.1380     9.0210 hc         1 VQG       0.045700
     47 H13        -78.4930   -74.9860     9.9290 hc         1 VQG       0.049200
     48 H14        -78.0970   -73.5170    10.7830 hc         1 VQG       0.049200
     49 H15        -79.2290   -74.5730    12.7360 ha         1 VQG       0.131000
     50 H16        -81.3320   -74.7580    13.9920 ha         1 VQG       0.133000
     51 H17        -86.2850   -72.5330    11.7690 h4         1 VQG       0.180000
     52 H18        -85.7390   -69.1420     9.9200 h1         1 VQG       0.104700
     53 H19        -85.5980   -68.8110     5.0620 ha         1 VQG       0.163000
     54 H20        -84.6380   -69.5740     2.9170 ha         1 VQG       0.159000
     55 H21        -83.1170   -71.6370     7.1500 ha         1 VQG       0.156000
     56 H22        -87.7590   -70.3790    10.6910 hc         1 VQG       0.043367
     57 H23        -87.7670   -70.1430     8.9440 hc         1 VQG       0.043367
     58 H24        -87.3540   -71.7220     9.6140 hc         1 VQG       0.043367
     59 H25        -87.0810   -74.6080    15.7610 hn         1 VQG       0.333500
     60 H26        -84.8910   -71.5130     8.3930 hn         1 VQG       0.312500
     61 H27        -85.8590   -76.0790    17.3600 ho         1 VQG       0.411000
     62 C22        -85.0790   -69.6780     7.5210 c          1 VQG       0.683700
@<TRIPOS>BOND
     1     1     2 1   
     2     1    27 1   
     3     1    34 2   
     4     2     3 1   
     5     2    35 1   
     6     2    36 1   
     7     3     4 1   
     8     3    28 1   
     9     3    37 1   
    10     4     5 1   
    11     4    38 1   
    12     4    39 1   
    13     5     6 ar  
    14     5    14 ar  
    15     6     7 ar  
    16     6    40 1   
    17     7     8 1   
    18     7    12 ar  
    19     8     9 1   
    20     8    41 1   
    21     8    42 1   
    22     9    10 1   
    23     9    43 1   
    24     9    44 1   
    25    10    11 1   
    26    10    45 1   
    27    10    46 1   
    28    11    12 1   
    29    11    47 1   
    30    11    48 1   
    31    12    13 ar  
    32    13    14 ar  
    33    13    49 1   
    34    14    50 1   
    35    15    16 2   
    36    15    28 1   
    37    15    51 1   
    38    16    17 1   
    39    16    30 1   
    40    17    24 1   
    41    17    29 1   
    42    17    52 1   
    43    18    19 ar  
    44    18    23 ar  
    45    18    62 1   
    46    19    20 ar  
    47    19    53 1   
    48    20    21 ar  
    49    20    54 1   
    50    21    22 ar  
    51    21    25 1   
    52    22    23 ar  
    53    22    26 1   
    54    23    55 1   
    55    24    56 1   
    56    24    57 1   
    57    24    58 1   
    58    27    32 1   
    59    27    59 1   
    60    28    31 1   
    61    29    60 1   
    62    29    62 1   
    63    30    31 2   
    64    32    61 1   
    65    33    62 2   
@<TRIPOS>SUBSTRUCTURE
     1 VQG         1 TEMP              0 ****  ****    0 ROOT
