@<TRIPOS>MOLECULE
VQG
   62    65     1     0     0
SMALL
No Charge or Current Charge


@<TRIPOS>ATOM
      1 C03        -85.3880   -74.3960    15.6030 c          1 VQG       0.602100
      2 C04        -85.6070   -73.3090    14.5510 c3         1 VQG      -0.183400
      3 C05        -84.3100   -72.9980    13.7590 c3         1 VQG       0.097300
      4 C06        -83.7910   -74.2180    12.9460 c3         1 VQG      -0.038100
      5 C07        -82.5500   -73.8910    12.1210 ca         1 VQG      -0.097300
      6 C08        -82.6550   -73.6770    10.7340 ca         1 VQG      -0.097000
      7 C09        -81.5240   -73.3390     9.9690 ca         1 VQG      -0.065300
      8 C10        -81.6970   -73.0770     8.4680 c6         1 VQG      -0.031100
      9 C11        -80.3710   -73.0820     7.6790 c6         1 VQG      -0.074400
     10 C12        -79.3030   -72.2470     8.4140 c6         1 VQG      -0.074400
     11 C13        -79.0030   -72.8520     9.8040 c6         1 VQG      -0.031100
     12 C14        -80.2640   -73.2120    10.6010 ca         1 VQG      -0.057300
     13 C15        -80.1590   -73.4390    11.9860 ca         1 VQG      -0.106000
     14 C16        -81.2950   -73.7730    12.7430 ca         1 VQG      -0.095000
     15 C18        -85.2180   -71.6990    11.7490 cc         1 VQG      -0.214000
     16 C19        -84.9710   -70.4220    11.3320 cd         1 VQG       0.178300
     17 C20        -85.4550   -69.7420    10.0700 c3         1 VQG       0.094400
     18 C23        -84.2090   -71.0130     6.6390 ca         1 VQG      -0.139600
     19 C24        -83.4590   -70.5850     5.5180 ca         1 VQG      -0.048000
     20 C25        -83.0950   -71.4920     4.5060 ca         1 VQG      -0.140000
     21 C26        -83.4800   -72.8370     4.5980 ca         1 VQG       0.153000
     22 C28        -84.2360   -73.2770     5.6990 ca         1 VQG       0.121000
     23 C30        -84.6020   -72.3750     6.7130 ca         1 VQG      -0.107000
     24 C32        -86.9710   -69.4730    10.0950 c3         1 VQG      -0.114100
     25 F27        -83.1230   -73.7040     3.6230 f          1 VQG      -0.156000
     26 F29        -84.6150   -74.5720     5.7930 f          1 VQG      -0.161000
     27 N02        -86.0340   -75.6010    15.3550 ns         1 VQG      -0.383400
     28 N17        -84.4820   -71.8040    12.9030 na         1 VQG       0.125800
     29 N21        -85.0920   -70.5280     8.8830 ns         1 VQG      -0.488900
     30 N33        -84.1420   -69.7970    12.2410 nd         1 VQG      -0.341000
     31 N34        -83.8450   -70.6350    13.1970 nc         1 VQG      -0.177800
     32 O01        -86.1390   -76.6160    16.3840 oh         1 VQG      -0.422100
     33 O31        -84.3620   -68.8110     7.5860 o          1 VQG      -0.594100
     34 O35        -84.7050   -74.2050    16.5990 o          1 VQG      -0.554100
     35 H1         -85.9160   -72.3950    15.0730 hc         1 VQG       0.073700
     36 H2         -86.3960   -73.6060    13.8500 hc         1 VQG       0.073700
     37 H3         -83.5290   -72.7460    14.4900 h1         1 VQG       0.121700
     38 H4         -84.5930   -74.5850    12.2930 hc         1 VQG       0.057200
     39 H5         -83.5620   -75.0430    13.6320 hc         1 VQG       0.057200
     40 H6         -83.6240   -73.7600    10.2470 ha         1 VQG       0.100000
     41 H7         -82.1820   -72.1000     8.3440 hc         1 VQG       0.045200
     42 H8         -82.3800   -73.8200     8.0340 hc         1 VQG       0.045200
     43 H9         -80.0150   -74.1140     7.5560 hc         1 VQG       0.045700
     44 H10        -80.5370   -72.6840     6.6680 hc         1 VQG       0.045700
     45 H11        -78.3810   -72.2010     7.8190 hc         1 VQG       0.045700
     46 H12        -79.6570   -71.2130     8.5270 hc         1 VQG       0.045700
     47 H13        -78.3970   -73.7600     9.6790 hc         1 VQG       0.049200
     48 H14        -78.3840   -72.1500    10.3790 hc         1 VQG       0.049200
     49 H15        -79.1940   -73.3520    12.4790 ha         1 VQG       0.113000
     50 H16        -81.1970   -73.9360    13.8140 ha         1 VQG       0.115000
     51 H17        -85.8020   -72.5030    11.3250 h4         1 VQG       0.162000
     52 H18        -84.9460   -68.7690    10.0160 h1         1 VQG       0.104700
     53 H19        -83.1430   -69.5460     5.4330 ha         1 VQG       0.145000
     54 H20        -82.5120   -71.1540     3.6530 ha         1 VQG       0.141000
     55 H21        -85.1910   -72.7530     7.5440 ha         1 VQG       0.138000
     56 H22        -87.2370   -68.8610    10.9650 hc         1 VQG       0.043367
     57 H23        -87.2820   -68.9350     9.1910 hc         1 VQG       0.043367
     58 H24        -87.5340   -70.4130    10.1490 hc         1 VQG       0.043367
     59 H25        -86.7160   -75.6570    14.5990 hn         1 VQG       0.333500
     60 H26        -85.2010   -71.5310     8.9260 hn         1 VQG       0.312500
     61 H27        -85.8490   -77.4420    15.9280 ho         1 VQG       0.450000
     62 C22        -84.5530   -70.0120     7.7240 c          1 VQG       0.616700
@<TRIPOS>BOND
     1     1     2 1   
     2     1    27 1   
     3     1    34 2   
     4     2     3 1   
     5     2    35 1   
     6     2    36 1   
     7     3     4 1   
     8     3    28 1   
     9     3    37 1   
    10     4     5 1   
    11     4    38 1   
    12     4    39 1   
    13     5     6 ar  
    14     5    14 ar  
    15     6     7 ar  
    16     6    40 1   
    17     7     8 1   
    18     7    12 ar  
    19     8     9 1   
    20     8    41 1   
    21     8    42 1   
    22     9    10 1   
    23     9    43 1   
    24     9    44 1   
    25    10    11 1   
    26    10    45 1   
    27    10    46 1   
    28    11    12 1   
    29    11    47 1   
    30    11    48 1   
    31    12    13 ar  
    32    13    14 ar  
    33    13    49 1   
    34    14    50 1   
    35    15    16 2   
    36    15    28 1   
    37    15    51 1   
    38    16    17 1   
    39    16    30 1   
    40    17    24 1   
    41    17    29 1   
    42    17    52 1   
    43    18    19 ar  
    44    18    23 ar  
    45    18    62 1   
    46    19    20 ar  
    47    19    53 1   
    48    20    21 ar  
    49    20    54 1   
    50    21    22 ar  
    51    21    25 1   
    52    22    23 ar  
    53    22    26 1   
    54    23    55 1   
    55    24    56 1   
    56    24    57 1   
    57    24    58 1   
    58    27    32 1   
    59    27    59 1   
    60    28    31 1   
    61    29    60 1   
    62    29    62 1   
    63    30    31 2   
    64    32    61 1   
    65    33    62 2   
@<TRIPOS>SUBSTRUCTURE
     1 VQG         1 TEMP              0 ****  ****    0 ROOT
