@<TRIPOS>MOLECULE
VQH
   57    60     1     0     0
SMALL
No Charge or Current Charge


@<TRIPOS>ATOM
      1 C1          -5.3290     5.4260    14.7730 c6         1 VQH      -0.072200
      2 C2          -4.2930     4.3540    15.1740 c6         1 VQH       0.216300
      3 C3          -3.2170     4.2870    14.0700 c6         1 VQH      -0.073400
      4 C4          -2.5090     5.6540    13.8990 c6         1 VQH      -0.070400
      5 C5          -3.4820     6.8410    13.5720 c6         1 VQH       0.004200
      6 C6          -2.6950     8.2080    13.7410 c6         1 VQH      -0.047700
      7 C7          -3.6640     9.4380    13.7670 c6         1 VQH      -0.042700
      8 C8          -4.6760     9.3070    14.9340 c6         1 VQH      -0.040200
      9 C9          -5.2130     7.8980    15.1130 c2         1 VQH      -0.201200
     10 C10         -4.6960     6.8010    14.5300 c2         1 VQH      -0.119400
     11 C11         -1.5320     8.4030    12.6990 c6         1 VQH      -0.070400
     12 C12         -2.8450    10.7780    13.9090 c5         1 VQH      -0.062700
     13 C13         -0.7840     9.7560    12.8690 c6         1 VQH      -0.064400
     14 C14         -1.7610    10.9660    12.8070 c5         1 VQH      -0.037000
     15 C15         -2.3260    11.0880    11.3470 c3         1 VQH      -0.085100
     16 C16         -1.1540    12.3030    13.3660 c5         1 VQH      -0.186700
     17 C17         -3.5790    12.1740    13.8880 c5         1 VQH      -0.072400
     18 C18         -2.4160    13.1960    13.6470 c5         1 VQH      -0.064400
     19 C23         -0.1590    12.9810    12.3860 c          1 VQH       0.583900
     20 C           -4.0560     6.6760    12.1200 c3         1 VQH      -0.080100
     21 O25         -4.9450     3.0760    15.2630 os         1 VQH      -0.574700
     22 S22         -5.0080     2.3490    16.7150 s6         1 VQH       1.394800
     23 O20         -5.5690     3.2470    17.7230 o          1 VQH      -0.572500
     24 O21         -3.7870     1.5810    16.9310 o          1 VQH      -0.572500
     25 N19         -6.1390     1.2820    16.3050 n8         1 VQH      -1.017100
     26 H1          -6.0930     5.4930    15.5580 hc         1 VQH       0.068200
     27 H2          -5.8620     5.1000    13.8700 hc         1 VQH       0.068200
     28 H3          -3.8210     4.6290    16.1300 h1         1 VQH       0.069700
     29 H4          -3.6640     3.9620    13.1220 hc         1 VQH       0.058700
     30 H5          -2.4720     3.5250    14.3350 hc         1 VQH       0.058700
     31 H6          -1.7480     5.5560    13.1130 hc         1 VQH       0.045700
     32 H7          -1.9600     5.8730    14.8250 hc         1 VQH       0.045700
     33 H8          -2.2170     8.1810    14.7310 hc         1 VQH       0.046700
     34 H9          -4.2320     9.4750    12.8300 hc         1 VQH       0.057700
     35 H10         -4.2080     9.6140    15.8800 hc         1 VQH       0.051200
     36 H11         -5.5130     9.9990    14.7690 hc         1 VQH       0.051200
     37 H12         -6.0790     7.8160    15.7710 ha         1 VQH       0.176000
     38 H13         -1.9110     8.3340    11.6740 hc         1 VQH       0.042200
     39 H14         -0.7960     7.5960    12.8000 hc         1 VQH       0.042200
     40 H15         -2.3540    10.6690    14.8850 hc         1 VQH       0.043700
     41 H16         -0.2580     9.7500    13.8330 hc         1 VQH       0.040700
     42 H17         -0.0060     9.8540    12.0990 hc         1 VQH       0.040700
     43 H18         -2.9130    12.0000    11.1940 hc         1 VQH       0.038033
     44 H19         -1.5160    11.1060    10.6090 hc         1 VQH       0.038033
     45 H20         -2.9780    10.2500    11.0780 hc         1 VQH       0.038033
     46 H21         -0.5970    12.0980    14.2880 hc         1 VQH       0.067700
     47 H22         -4.1080    12.3680    14.8280 hc         1 VQH       0.045700
     48 H23         -4.3280    12.2230    13.0900 hc         1 VQH       0.045700
     49 H24         -2.2560    13.8440    14.5170 hc         1 VQH       0.054200
     50 H25         -2.6590    13.8570    12.8070 hc         1 VQH       0.054200
     51 H26          0.9000    12.9330    12.7260 h4         1 VQH      -0.018800
     52 H27         -4.6650     5.7720    12.0160 hc         1 VQH       0.036367
     53 H28         -4.6970     7.5160    11.8340 hc         1 VQH       0.036367
     54 H29         -3.2620     6.5920    11.3700 hc         1 VQH       0.036367
     55 H30         -6.1780     1.5320    15.3210 hn         1 VQH       0.483000
     56 H31         -5.5660     0.4440    16.3180 hn         1 VQH       0.483000
     57 O23         -0.4320    13.5330    11.3250 o          1 VQH      -0.517100
@<TRIPOS>BOND
     1     1     2 1   
     2     1    10 1   
     3     1    26 1   
     4     1    27 1   
     5     2     3 1   
     6     2    21 1   
     7     2    28 1   
     8     3     4 1   
     9     3    29 1   
    10     3    30 1   
    11     4     5 1   
    12     4    31 1   
    13     4    32 1   
    14     5     6 1   
    15     5    10 1   
    16     5    20 1   
    17     6     7 1   
    18     6    11 1   
    19     6    33 1   
    20     7     8 1   
    21     7    12 1   
    22     7    34 1   
    23     8     9 1   
    24     8    35 1   
    25     8    36 1   
    26     9    10 2   
    27     9    37 1   
    28    11    13 1   
    29    11    38 1   
    30    11    39 1   
    31    12    14 1   
    32    12    17 1   
    33    12    40 1   
    34    13    14 1   
    35    13    41 1   
    36    13    42 1   
    37    14    15 1   
    38    14    16 1   
    39    15    43 1   
    40    15    44 1   
    41    15    45 1   
    42    16    18 1   
    43    16    19 1   
    44    16    46 1   
    45    17    18 1   
    46    17    47 1   
    47    17    48 1   
    48    18    49 1   
    49    18    50 1   
    50    19    51 1   
    51    19    57 2   
    52    20    52 1   
    53    20    53 1   
    54    20    54 1   
    55    21    22 1   
    56    22    23 2   
    57    22    24 2   
    58    22    25 1   
    59    25    55 1   
    60    25    56 1   
@<TRIPOS>SUBSTRUCTURE
     1 VQH         1 TEMP              0 ****  ****    0 ROOT
