@<TRIPOS>MOLECULE
VQH
   57    60     1     0     0
SMALL
abcg2


@<TRIPOS>ATOM
      1 C1          -5.2150     5.4710    14.7640 c6         1 VQH      -0.072200
      2 C2          -4.1710     4.4080    15.0750 c6         1 VQH       0.216300
      3 C3          -3.1200     4.3580    13.9890 c6         1 VQH      -0.073400
      4 C4          -2.4560     5.7230    13.8620 c6         1 VQH      -0.070400
      5 C5          -3.4270     6.8830    13.5520 c6         1 VQH       0.004200
      6 C6          -2.6550     8.2180    13.7000 c6         1 VQH      -0.047700
      7 C7          -3.5940     9.4280    13.8410 c6         1 VQH      -0.042700
      8 C8          -4.4740     9.2640    15.0750 c6         1 VQH      -0.040200
      9 C9          -5.0010     7.8770    15.2330 c2         1 VQH      -0.201200
     10 C10         -4.5660     6.8160    14.5550 c2         1 VQH      -0.119400
     11 C11         -1.6030     8.4240    12.5980 c6         1 VQH      -0.070400
     12 C12         -2.7610    10.6960    13.9510 c5         1 VQH      -0.062700
     13 C13         -0.8350     9.7400    12.7310 c6         1 VQH      -0.064400
     14 C14         -1.8000    10.9190    12.7780 c5         1 VQH      -0.037000
     15 C15         -2.5230    11.0910    11.4350 c3         1 VQH      -0.085100
     16 C16         -1.1910    12.2770    13.2030 c5         1 VQH      -0.186700
     17 C17         -3.4660    12.0400    14.1170 c5         1 VQH      -0.072400
     18 C18         -2.3760    13.0810    13.7730 c5         1 VQH      -0.064400
     19 C23         -0.3920    12.9350    12.1270 c          1 VQH       0.583900
     20 C           -4.0050     6.7180    12.1370 c3         1 VQH      -0.080100
     21 O25         -4.7690     3.0840    15.1300 os         1 VQH      -0.574700
     22 S22         -5.5490     2.6360    16.4470 s6         1 VQH       1.394800
     23 O20         -6.9130     3.1170    16.4140 o          1 VQH      -0.572500
     24 O21         -4.7320     2.9670    17.5980 o          1 VQH      -0.572500
     25 N19         -5.5920     1.0360    16.1090 n8         1 VQH      -1.017100
     26 H1          -5.9490     5.5480    15.5680 hc         1 VQH       0.068200
     27 H2          -5.7580     5.1610    13.8640 hc         1 VQH       0.068200
     28 H3          -3.6910     4.6230    16.0350 h1         1 VQH       0.069700
     29 H4          -3.5810     4.0610    13.0430 hc         1 VQH       0.058700
     30 H5          -2.3660     3.6060    14.2300 hc         1 VQH       0.058700
     31 H6          -1.6850     5.6630    13.0910 hc         1 VQH       0.045700
     32 H7          -1.9370     5.9470    14.8000 hc         1 VQH       0.045700
     33 H8          -2.1070     8.1580    14.6520 hc         1 VQH       0.046700
     34 H9          -4.2430     9.4920    12.9600 hc         1 VQH       0.057700
     35 H10         -3.9080     9.5390    15.9750 hc         1 VQH       0.051200
     36 H11         -5.3120     9.9670    15.0390 hc         1 VQH       0.051200
     37 H12         -5.8030     7.7420    15.9540 ha         1 VQH       0.176000
     38 H13         -2.0780     8.3920    11.6150 hc         1 VQH       0.042200
     39 H14         -0.8890     7.5980    12.6110 hc         1 VQH       0.042200
     40 H15         -2.1190    10.5640    14.8360 hc         1 VQH       0.043700
     41 H16         -0.2410     9.7290    13.6520 hc         1 VQH       0.040700
     42 H17         -0.1290     9.8370    11.9010 hc         1 VQH       0.040700
     43 H18         -3.1380    11.9920    11.4090 hc         1 VQH       0.038033
     44 H19         -1.8010    11.1690    10.6190 hc         1 VQH       0.038033
     45 H20         -3.1790    10.2540    11.1990 hc         1 VQH       0.038033
     46 H21         -0.4640    12.0630    14.0000 hc         1 VQH       0.067700
     47 H22         -3.8640    12.1790    15.1230 hc         1 VQH       0.045700
     48 H23         -4.3120    12.1160    13.4300 hc         1 VQH       0.045700
     49 H24         -2.0660    13.6450    14.6530 hc         1 VQH       0.054200
     50 H25         -2.7440    13.8100    13.0510 hc         1 VQH       0.054200
     51 H26          0.4050    12.2930    11.7040 h4         1 VQH      -0.018800
     52 H27         -4.6840     5.8680    12.0690 hc         1 VQH       0.036367
     53 H28         -4.5690     7.6020    11.8340 hc         1 VQH       0.036367
     54 H29         -3.2200     6.5530    11.3980 hc         1 VQH       0.036367
     55 H30         -4.7320     0.5450    16.3300 hn         1 VQH       0.483000
     56 H31         -6.3940     0.5820    16.5320 hn         1 VQH       0.483000
     57 O23         -0.5380    14.0630    11.7240 o          1 VQH      -0.517100
@<TRIPOS>BOND
     1     1     2 1   
     2     1    10 1   
     3     1    26 1   
     4     1    27 1   
     5     2     3 1   
     6     2    21 1   
     7     2    28 1   
     8     3     4 1   
     9     3    29 1   
    10     3    30 1   
    11     4     5 1   
    12     4    31 1   
    13     4    32 1   
    14     5     6 1   
    15     5    10 1   
    16     5    20 1   
    17     6     7 1   
    18     6    11 1   
    19     6    33 1   
    20     7     8 1   
    21     7    12 1   
    22     7    34 1   
    23     8     9 1   
    24     8    35 1   
    25     8    36 1   
    26     9    10 2   
    27     9    37 1   
    28    11    13 1   
    29    11    38 1   
    30    11    39 1   
    31    12    14 1   
    32    12    17 1   
    33    12    40 1   
    34    13    14 1   
    35    13    41 1   
    36    13    42 1   
    37    14    15 1   
    38    14    16 1   
    39    15    43 1   
    40    15    44 1   
    41    15    45 1   
    42    16    18 1   
    43    16    19 1   
    44    16    46 1   
    45    17    18 1   
    46    17    47 1   
    47    17    48 1   
    48    18    49 1   
    49    18    50 1   
    50    19    51 1   
    51    19    57 2   
    52    20    52 1   
    53    20    53 1   
    54    20    54 1   
    55    21    22 1   
    56    22    23 2   
    57    22    24 2   
    58    22    25 1   
    59    25    55 1   
    60    25    56 1   
@<TRIPOS>SUBSTRUCTURE
     1 VQH         1 TEMP              0 ****  ****    0 ROOT
