@<TRIPOS>MOLECULE
VQI
   53    55     1     0     0
SMALL
No Charge or Current Charge


@<TRIPOS>ATOM
      1 C1          -2.3420     4.4220    -0.7770 c3         1 VQI      -0.030800
      2 C2          -2.7400     3.0220    -0.3170 ca         1 VQI      -0.106300
      3 C3          -1.9810     1.9080    -0.7290 ca         1 VQI      -0.061000
      4 C4          -2.3220     0.6030    -0.3130 ca         1 VQI      -0.096300
      5 C5          -3.4560     0.4180     0.5060 ca         1 VQI      -0.032300
      6 C6          -4.2140     1.5280     0.9220 ca         1 VQI      -0.209000
      7 C7          -3.8590     2.8230     0.5160 ca         1 VQI       0.130100
      8 O8          -4.6130     3.8810     0.9340 oh         1 VQI      -0.539100
      9 C9          -3.8600    -0.9830     0.9480 c6         1 VQI      -0.031100
     10 C10         -3.2540    -2.0810     0.0520 c6         1 VQI       0.178800
     11 N11         -1.7880    -1.8960    -0.1030 n3         1 VQI      -0.728600
     12 C12         -1.4760    -0.6020    -0.7870 c6         1 VQI       0.298100
     13 C13          0.0240    -0.2710    -0.6940 ca         1 VQI      -0.128300
     14 C14          0.8050    -0.1570    -1.8600 ca         1 VQI      -0.096500
     15 C15          2.1740     0.1490    -1.7700 ca         1 VQI      -0.130500
     16 C16          2.7860     0.3450    -0.5170 ca         1 VQI       0.009200
     17 C17          2.0020     0.2290     0.6490 ca         1 VQI      -0.130500
     18 C18          0.6330    -0.0760     0.5610 ca         1 VQI      -0.096500
     19 C19          4.2410     0.6680    -0.4570 ce         1 VQI      -0.244200
     20 C20          5.0360     0.8980     0.6360 cf         1 VQI      -0.209200
     21 C21          6.4960     1.2170     0.5960 c          1 VQI       0.695200
     22 O22          7.0590     1.2850    -0.4870 o          1 VQI      -0.723000
     23 O23          7.0630     1.3960     1.6620 o          1 VQI      -0.723000
     24 C24         -1.1060    -3.0550    -0.7470 c3         1 VQI       0.174800
     25 C25         -1.1280    -4.3910     0.0510 c3         1 VQI      -0.057700
     26 C26         -0.3910    -5.5050    -0.7260 c3         1 VQI      -0.085600
     27 C27         -0.5470    -4.2330     1.4770 c3         1 VQI      -0.085600
     28 H11C        -3.1490     4.8910    -1.3520 hc         1 VQI       0.040367
     29 H12C        -2.1200     5.0680     0.0810 hc         1 VQI       0.040367
     30 H13C        -1.4500     4.4050    -1.4150 hc         1 VQI       0.040367
     31 H3          -1.1210     2.0590    -1.3760 ha         1 VQI       0.125000
     32 H12         -1.7180    -0.7230    -1.8530 h1         1 VQI       0.026700
     33 H6          -5.0800     1.3750     1.5610 ha         1 VQI       0.103000
     34 H91C        -3.5310    -1.1410     1.9840 hc         1 VQI       0.051200
     35 H92C        -4.9540    -1.0810     0.9500 hc         1 VQI       0.051200
     36 H8          -5.3380     3.5370     1.4990 ho         1 VQI       0.455000
     37 H101        -3.4910    -3.0510     0.5090 h1         1 VQI       0.027200
     38 H102        -3.7440    -2.0580    -0.9330 h1         1 VQI       0.027200
     39 H241        -1.5480    -3.2330    -1.7370 h1         1 VQI       0.036200
     40 H242        -0.0490    -2.8130    -0.9190 h1         1 VQI       0.036200
     41 H14          0.3520    -0.3050    -2.8380 ha         1 VQI       0.102000
     42 H18          0.0400    -0.1640     1.4690 ha         1 VQI       0.102000
     43 H15          2.7600     0.2330    -2.6820 ha         1 VQI       0.114000
     44 H17          2.4430     0.3730     1.6310 ha         1 VQI       0.114000
     45 H19          4.7160     0.7220    -1.4380 ha         1 VQI       0.190000
     46 H20          4.6050     0.8550     1.6320 ha         1 VQI       0.144000
     47 H25         -2.1680    -4.7210     0.1500 hc         1 VQI       0.031700
     48 H261         0.6680    -5.2540    -0.8580 hc         1 VQI       0.034033
     49 H262        -0.4540    -6.4590    -0.1890 hc         1 VQI       0.034033
     50 H263        -0.8370    -5.6460    -1.7180 hc         1 VQI       0.034033
     51 H271        -0.5690    -5.1900     2.0120 hc         1 VQI       0.034033
     52 H272         0.4920    -3.8840     1.4370 hc         1 VQI       0.034033
     53 H273        -1.1300    -3.5110     2.0600 hc         1 VQI       0.034033
@<TRIPOS>BOND
     1     1     2 1   
     2     1    28 1   
     3     1    29 1   
     4     1    30 1   
     5     2     3 ar  
     6     2     7 ar  
     7     3     4 ar  
     8     3    31 1   
     9     4     5 ar  
    10     4    12 1   
    11     5     6 ar  
    12     5     9 1   
    13     6     7 ar  
    14     6    33 1   
    15     7     8 1   
    16     8    36 1   
    17     9    10 1   
    18     9    34 1   
    19     9    35 1   
    20    10    11 1   
    21    10    37 1   
    22    10    38 1   
    23    11    12 1   
    24    11    24 1   
    25    12    13 1   
    26    12    32 1   
    27    13    14 ar  
    28    13    18 ar  
    29    14    15 ar  
    30    14    41 1   
    31    15    16 ar  
    32    15    43 1   
    33    16    17 ar  
    34    16    19 1   
    35    17    18 ar  
    36    17    44 1   
    37    18    42 1   
    38    19    20 2   
    39    19    45 1   
    40    20    21 1   
    41    20    46 1   
    42    21    22 1   
    43    21    23 1   
    44    24    25 1   
    45    24    39 1   
    46    24    40 1   
    47    25    26 1   
    48    25    27 1   
    49    25    47 1   
    50    26    48 1   
    51    26    49 1   
    52    26    50 1   
    53    27    51 1   
    54    27    52 1   
    55    27    53 1   
@<TRIPOS>SUBSTRUCTURE
     1 VQI         1 TEMP              0 ****  ****    0 ROOT
