@<TRIPOS>MOLECULE
VQI
   53    55     1     0     0
SMALL
bcc


@<TRIPOS>ATOM
      1 C1          -2.4210     4.2970    -1.0120 c3         1 VQI      -0.030800
      2 C2          -2.7390     2.9380    -0.4610 ca         1 VQI      -0.106300
      3 C3          -2.0550     1.8070    -0.8720 ca         1 VQI      -0.079000
      4 C4          -2.3220     0.5320    -0.3710 ca         1 VQI      -0.096300
      5 C5          -3.3360     0.3880     0.5670 ca         1 VQI      -0.032300
      6 C6          -4.0360     1.5140     0.9990 ca         1 VQI      -0.227000
      7 C7          -3.7420     2.7740     0.5040 ca         1 VQI       0.130100
      8 O8          -4.3980     3.8850     0.9060 oh         1 VQI      -0.500100
      9 C9          -3.6920    -0.9750     1.0790 c6         1 VQI      -0.031100
     10 C10         -3.2330    -2.0360     0.1000 c6         1 VQI       0.178800
     11 N11         -1.8190    -1.8780    -0.1660 n3         1 VQI      -0.728600
     12 C12         -1.5060    -0.6490    -0.8740 c6         1 VQI       0.298100
     13 C13         -0.0310    -0.3340    -0.7290 ca         1 VQI      -0.128300
     14 C14          0.7410     0.0160    -1.8270 ca         1 VQI      -0.114500
     15 C15          2.0810     0.3490    -1.6770 ca         1 VQI      -0.148500
     16 C16          2.6940     0.3320    -0.4240 ca         1 VQI       0.009200
     17 C17          1.9070    -0.0320     0.6780 ca         1 VQI      -0.148500
     18 C18          0.5740    -0.3570     0.5280 ca         1 VQI      -0.114500
     19 C19          4.1090     0.6870    -0.3200 ce         1 VQI      -0.194200
     20 C20          4.8730     0.6550     0.7760 cf         1 VQI      -0.159200
     21 C21          6.3340     1.0420     0.7760 c          1 VQI       0.905800
     22 O22          6.8310     1.4480    -0.2940 o          1 VQI      -0.828300
     23 O23          6.9210     0.9160     1.8710 o          1 VQI      -0.828300
     24 C24         -1.2350    -3.0340    -0.8190 c3         1 VQI       0.174800
     25 C25         -1.0810    -4.2600     0.0810 c3         1 VQI      -0.057700
     26 C26         -0.3810    -5.3660    -0.7030 c3         1 VQI      -0.085600
     27 C27         -0.3180    -3.9250     1.3570 c3         1 VQI      -0.085600
     28 H11C        -3.2900     4.7600    -1.4820 hc         1 VQI       0.040367
     29 H12C        -2.0820     4.9800    -0.2310 hc         1 VQI       0.040367
     30 H13C        -1.6330     4.2340    -1.7610 hc         1 VQI       0.040367
     31 H3          -1.2750     1.9280    -1.6170 ha         1 VQI       0.143000
     32 H12         -1.7170    -0.7580    -1.9550 h1         1 VQI       0.026700
     33 H6          -4.8280     1.3930     1.7310 ha         1 VQI       0.121000
     34 H91C        -3.2180    -1.1540     2.0490 hc         1 VQI       0.051200
     35 H92C        -4.7700    -1.0500     1.2370 hc         1 VQI       0.051200
     36 H8          -5.0720     3.6590     1.5570 ho         1 VQI       0.416000
     37 H101        -3.4040    -3.0230     0.5310 h1         1 VQI       0.027200
     38 H102        -3.8400    -1.9870    -0.8210 h1         1 VQI       0.027200
     39 H241        -1.8030    -3.3130    -1.7240 h1         1 VQI       0.036200
     40 H242        -0.2340    -2.7590    -1.1650 h1         1 VQI       0.036200
     41 H14          0.2940     0.0280    -2.8150 ha         1 VQI       0.120000
     42 H18         -0.0110    -0.6450     1.3920 ha         1 VQI       0.120000
     43 H15          2.6630     0.6200    -2.5500 ha         1 VQI       0.132000
     44 H17          2.3420    -0.0580     1.6700 ha         1 VQI       0.132000
     45 H19          4.5760     1.0040    -1.2480 ha         1 VQI       0.140000
     46 H20          4.4600     0.3350     1.7280 ha         1 VQI       0.094000
     47 H25         -2.0720    -4.6340     0.3610 hc         1 VQI       0.031700
     48 H261         0.6260    -5.0580    -0.9940 hc         1 VQI       0.034033
     49 H262        -0.2890    -6.2750    -0.1070 hc         1 VQI       0.034033
     50 H263        -0.9260    -5.6200    -1.6140 hc         1 VQI       0.034033
     51 H271        -0.1960    -4.8110     1.9820 hc         1 VQI       0.034033
     52 H272         0.6790    -3.5410     1.1240 hc         1 VQI       0.034033
     53 H273        -0.8320    -3.1630     1.9420 hc         1 VQI       0.034033
@<TRIPOS>BOND
     1     1     2 1   
     2     1    28 1   
     3     1    29 1   
     4     1    30 1   
     5     2     3 ar  
     6     2     7 ar  
     7     3     4 ar  
     8     3    31 1   
     9     4     5 ar  
    10     4    12 1   
    11     5     6 ar  
    12     5     9 1   
    13     6     7 ar  
    14     6    33 1   
    15     7     8 1   
    16     8    36 1   
    17     9    10 1   
    18     9    34 1   
    19     9    35 1   
    20    10    11 1   
    21    10    37 1   
    22    10    38 1   
    23    11    12 1   
    24    11    24 1   
    25    12    13 1   
    26    12    32 1   
    27    13    14 ar  
    28    13    18 ar  
    29    14    15 ar  
    30    14    41 1   
    31    15    16 ar  
    32    15    43 1   
    33    16    17 ar  
    34    16    19 1   
    35    17    18 ar  
    36    17    44 1   
    37    18    42 1   
    38    19    20 2   
    39    19    45 1   
    40    20    21 1   
    41    20    46 1   
    42    21    22 1   
    43    21    23 1   
    44    24    25 1   
    45    24    39 1   
    46    24    40 1   
    47    25    26 1   
    48    25    27 1   
    49    25    47 1   
    50    26    48 1   
    51    26    49 1   
    52    26    50 1   
    53    27    51 1   
    54    27    52 1   
    55    27    53 1   
@<TRIPOS>SUBSTRUCTURE
     1 VQI         1 TEMP              0 ****  ****    0 ROOT
