@<TRIPOS>MOLECULE
VQJ
   54    57     1     0     0
SMALL
bcc


@<TRIPOS>ATOM
      1 C13        -78.9140   -73.0750     9.3640 ca         1 VQJ      -0.076000
      2 C15        -79.5760   -72.8420    11.7470 ca         1 VQJ      -0.098000
      3 C20        -85.2010   -70.1880     9.6160 c3         1 VQJ       0.088700
      4 C22        -84.0020   -69.2200     7.7040 c          1 VQJ       0.690700
      5 C24        -83.2970   -68.7260     5.3820 ca         1 VQJ      -0.067000
      6 C26        -81.5800   -69.9540     4.2690 ca         1 VQJ       0.114900
      7 C28        -81.3950   -70.7210     5.4070 ca         1 VQJ       0.083900
      8 C04        -84.4820   -72.0130    14.8840 c3         1 VQJ      -0.180400
      9 C05        -83.3260   -71.9990    13.8880 c3         1 VQJ       0.069000
     10 C06        -82.9100   -73.4060    13.4440 c3         1 VQJ      -0.046100
     11 C07        -81.8570   -73.3610    12.3770 ca         1 VQJ      -0.082300
     12 C08        -82.1550   -73.6690    11.0750 ca         1 VQJ      -0.158300
     13 C09        -81.1760   -73.5780    10.0600 ca         1 VQJ       0.396600
     14 C11        -80.6130   -73.8190     7.8600 ca         1 VQJ       0.417200
     15 C12        -79.2840   -73.4050     8.0910 ca         1 VQJ      -0.242300
     16 C14        -79.8690   -73.1550    10.4000 ca         1 VQJ      -0.141300
     17 C16        -80.5440   -72.9450    12.7060 ca         1 VQJ      -0.113000
     18 C18        -84.6400   -71.4190    11.8180 cc         1 VQJ      -0.244600
     19 C19        -84.4380   -70.4500    10.8710 cd         1 VQJ       0.240600
     20 C23        -83.1370   -69.5130     6.5180 ca         1 VQJ      -0.137600
     21 C25        -82.5300   -68.9530     4.2500 ca         1 VQJ      -0.158000
     22 C30        -82.1680   -70.5140     6.5300 ca         1 VQJ      -0.120000
     23 F29        -80.4490   -71.6630     5.3990 f          1 VQJ      -0.129900
     24 N10        -81.5260   -73.9010     8.7920 nb         1 VQJ      -0.675000
     25 N17        -83.6710   -71.2010    12.7230 na         1 VQJ       0.102400
     26 N21        -84.3730   -70.2850     8.4350 ns         1 VQJ      -0.563900
     27 N32        -83.3690   -69.7180    11.2510 nd         1 VQJ      -0.334000
     28 N33        -82.9110   -70.1820    12.3610 nc         1 VQJ      -0.188800
     29 O01        -84.7940   -74.0760    17.9000 oh         1 VQJ      -0.379100
     30 O31        -84.3570   -68.0760     7.9440 o          1 VQJ      -0.587100
     31 H1         -77.9040   -72.7530     9.5890 ha         1 VQJ       0.141000
     32 H2         -78.5740   -72.5250    12.0090 ha         1 VQJ       0.139000
     33 H3         -85.6460   -69.1940     9.6390 h1         1 VQJ       0.067200
     34 H4         -86.0210   -70.9030     9.5380 h1         1 VQJ       0.067200
     35 H5         -84.0350   -67.9360     5.3690 ha         1 VQJ       0.161000
     36 H6         -84.7810   -70.9850    15.1040 hc         1 VQJ       0.075700
     37 H7         -85.3510   -72.5130    14.4500 hc         1 VQJ       0.075700
     38 H8         -82.4730   -71.4900    14.3370 h1         1 VQJ       0.117700
     39 H9         -83.7880   -73.9540    13.0920 hc         1 VQJ       0.061700
     40 H10        -82.5340   -73.9420    14.3190 hc         1 VQJ       0.061700
     41 H11        -83.1510   -73.9910    10.7960 ha         1 VQJ       0.141000
     42 H12        -80.9190   -74.0890     6.8550 h4         1 VQJ       0.022100
     43 H13        -78.5840   -73.3600     7.2690 ha         1 VQJ       0.149000
     44 H14        -80.3080   -72.7050    13.7360 ha         1 VQJ       0.139000
     45 H15        -85.3640   -72.2120    11.9030 h4         1 VQJ       0.180000
     46 H16        -82.6650   -68.3570     3.3570 ha         1 VQJ       0.158000
     47 H17        -81.9850   -71.1240     7.4070 ha         1 VQJ       0.161000
     48 H18        -85.8450   -73.7040    16.2320 hn         1 VQJ       0.336500
     49 H19        -84.1070   -71.2110     8.1380 hn         1 VQJ       0.321500
     50 H20        -84.3480   -74.9280    17.8010 ho         1 VQJ       0.409000
     51 C03        -84.0620   -72.6500    16.1920 c          1 VQJ       0.670100
     52 F27        -80.8270   -70.1950     3.1950 f          1 VQJ      -0.122900
     53 N02        -84.9320   -73.5720    16.6440 ns         1 VQJ      -0.453400
     54 O34        -83.0270   -72.3580    16.7620 o          1 VQJ      -0.559100
@<TRIPOS>BOND
     1     1    15 ar  
     2     1    16 ar  
     3     1    31 1   
     4     2    16 ar  
     5     2    17 ar  
     6     2    32 1   
     7     3    19 1   
     8     3    26 1   
     9     3    33 1   
    10     3    34 1   
    11     4    20 1   
    12     4    26 1   
    13     4    30 2   
    14     5    20 ar  
    15     5    21 ar  
    16     5    35 1   
    17     6     7 ar  
    18     6    21 ar  
    19     6    52 1   
    20     7    22 ar  
    21     7    23 1   
    22     8     9 1   
    23     8    36 1   
    24     8    37 1   
    25     8    51 1   
    26     9    10 1   
    27     9    25 1   
    28     9    38 1   
    29    10    11 1   
    30    10    39 1   
    31    10    40 1   
    32    11    12 ar  
    33    11    17 ar  
    34    12    13 ar  
    35    12    41 1   
    36    13    16 ar  
    37    13    24 ar  
    38    14    15 ar  
    39    14    24 ar  
    40    14    42 1   
    41    15    43 1   
    42    17    44 1   
    43    18    19 2   
    44    18    25 1   
    45    18    45 1   
    46    19    27 1   
    47    20    22 ar  
    48    21    46 1   
    49    22    47 1   
    50    25    28 1   
    51    26    49 1   
    52    27    28 2   
    53    29    50 1   
    54    29    53 1   
    55    48    53 1   
    56    51    53 1   
    57    51    54 2   
@<TRIPOS>SUBSTRUCTURE
     1 VQJ         1 TEMP              0 ****  ****    0 ROOT
