@<TRIPOS>MOLECULE
VQJ
   54    57     1     0     0
SMALL
No Charge or Current Charge


@<TRIPOS>ATOM
      1 C13        -79.5180   -72.6620     8.5870 ca         1 VQJ      -0.058000
      2 C15        -80.0210   -72.3460    10.9530 ca         1 VQJ      -0.080000
      3 C20        -84.2900   -68.5450    10.3730 c3         1 VQJ       0.088700
      4 C22        -83.9140   -69.9920     8.3400 c          1 VQJ       0.623700
      5 C24        -83.3860   -71.2030     6.1850 ca         1 VQJ      -0.049000
      6 C26        -81.2460   -70.9730     5.0510 ca         1 VQJ       0.150000
      7 C28        -80.8050   -70.1060     6.0660 ca         1 VQJ       0.119000
      8 C04        -84.4620   -72.1220    14.9350 c3         1 VQJ      -0.180400
      9 C05        -83.2960   -71.9940    13.9180 c3         1 VQJ       0.098300
     10 C06        -83.1330   -73.2640    13.0300 c3         1 VQJ      -0.046100
     11 C07        -82.1520   -73.1070    11.8630 ca         1 VQJ      -0.082300
     12 C08        -82.5140   -73.5720    10.5820 ca         1 VQJ      -0.075000
     13 C09        -81.6490   -73.4380     9.4800 ca         1 VQJ       0.266000
     14 C11        -81.1780   -73.7720     7.2240 ca         1 VQJ       0.351900
     15 C12        -79.9220   -73.1560     7.3390 ca         1 VQJ      -0.159000
     16 C14        -80.3930   -72.8090     9.6780 ca         1 VQJ      -0.076000
     17 C16        -80.8920   -72.5030    12.0420 ca         1 VQJ      -0.095000
     18 C18        -84.1500   -70.5720    11.9650 cc         1 VQJ      -0.212000
     19 C19        -83.8490   -69.2900    11.6070 cd         1 VQJ       0.175300
     20 C23        -82.9630   -70.3210     7.2070 ca         1 VQJ      -0.137600
     21 C25        -82.5350   -71.5220     5.1110 ca         1 VQJ      -0.140000
     22 C30        -81.6540   -69.7780     7.1370 ca         1 VQJ      -0.102000
     23 F29        -79.5570   -69.5840     6.0220 f          1 VQJ      -0.165000
     24 N10        -82.0280   -73.9110     8.2680 nb         1 VQJ      -0.675000
     25 N17        -83.4260   -70.7580    13.1170 na         1 VQJ       0.123800
     26 N21        -83.5390   -68.9680     9.1830 ns         1 VQJ      -0.496900
     27 N32        -83.0000   -68.7390    12.5440 nd         1 VQJ      -0.334000
     28 N33        -82.7430   -69.6300    13.4630 nc         1 VQJ      -0.188800
     29 O01        -85.2120   -75.3800    16.7790 oh         1 VQJ      -0.418100
     30 O31        -84.9630   -70.5990     8.5080 o          1 VQJ      -0.587100
     31 H1         -78.5480   -72.1820     8.7050 ha         1 VQJ       0.123000
     32 H2         -79.0540   -71.8710    11.1030 ha         1 VQJ       0.121000
     33 H3         -84.1370   -67.4680    10.5250 h1         1 VQJ       0.067200
     34 H4         -85.3640   -68.7100    10.2150 h1         1 VQJ       0.067200
     35 H5         -84.3830   -71.6400     6.2160 ha         1 VQJ       0.143000
     36 H6         -84.5090   -71.1950    15.5200 hc         1 VQJ       0.075700
     37 H7         -85.4040   -72.2490    14.3890 hc         1 VQJ       0.075700
     38 H8         -82.3700   -71.8880    14.4990 h1         1 VQJ       0.117700
     39 H9         -84.1210   -73.5440    12.6440 hc         1 VQJ       0.061700
     40 H10        -82.8080   -74.1020    13.6580 hc         1 VQJ       0.061700
     41 H11        -83.4790   -74.0470    10.4330 ha         1 VQJ       0.123000
     42 H12        -81.5170   -74.1650     6.2660 h4         1 VQJ       0.022100
     43 H13        -79.2770   -73.0680     6.4690 ha         1 VQJ       0.131000
     44 H14        -80.5830   -72.1460    13.0220 ha         1 VQJ       0.121000
     45 H15        -84.7580   -71.3320    11.4940 h4         1 VQJ       0.162000
     46 H16        -82.8730   -72.1970     4.3280 ha         1 VQJ       0.140000
     47 H17        -81.2720   -69.1130     7.9060 ha         1 VQJ       0.143000
     48 H18        -85.9310   -74.2540    15.1500 hn         1 VQJ       0.336500
     49 H19        -82.6690   -68.4960     8.9730 hn         1 VQJ       0.321500
     50 H20        -85.1550   -76.2190    16.2640 ho         1 VQJ       0.448000
     51 C03        -84.2470   -73.2790    15.9090 c          1 VQJ       0.603100
     52 F27        -80.4300   -71.2950     4.0220 f          1 VQJ      -0.158000
     53 N02        -85.1240   -74.3480    15.7660 ns         1 VQJ      -0.386400
     54 O34        -83.3730   -73.2530    16.7650 o          1 VQJ      -0.559100
@<TRIPOS>BOND
     1     1    15 ar  
     2     1    16 ar  
     3     1    31 1   
     4     2    16 ar  
     5     2    17 ar  
     6     2    32 1   
     7     3    19 1   
     8     3    26 1   
     9     3    33 1   
    10     3    34 1   
    11     4    20 1   
    12     4    26 1   
    13     4    30 2   
    14     5    20 ar  
    15     5    21 ar  
    16     5    35 1   
    17     6     7 ar  
    18     6    21 ar  
    19     6    52 1   
    20     7    22 ar  
    21     7    23 1   
    22     8     9 1   
    23     8    36 1   
    24     8    37 1   
    25     8    51 1   
    26     9    10 1   
    27     9    25 1   
    28     9    38 1   
    29    10    11 1   
    30    10    39 1   
    31    10    40 1   
    32    11    12 ar  
    33    11    17 ar  
    34    12    13 ar  
    35    12    41 1   
    36    13    16 ar  
    37    13    24 ar  
    38    14    15 ar  
    39    14    24 ar  
    40    14    42 1   
    41    15    43 1   
    42    17    44 1   
    43    18    19 2   
    44    18    25 1   
    45    18    45 1   
    46    19    27 1   
    47    20    22 ar  
    48    21    46 1   
    49    22    47 1   
    50    25    28 1   
    51    26    49 1   
    52    27    28 2   
    53    29    50 1   
    54    29    53 1   
    55    48    53 1   
    56    51    53 1   
    57    51    54 2   
@<TRIPOS>SUBSTRUCTURE
     1 VQJ         1 TEMP              0 ****  ****    0 ROOT
