@<TRIPOS>MOLECULE
VQK
   49    51     1     0     0
SMALL
abcg2


@<TRIPOS>ATOM
      1 N1         -29.1280   -15.5100    33.9680 ns         1 VQK      -0.148000
      2 C4         -30.0810   -14.4780    33.9620 ca         1 VQK      -0.017000
      3 C5         -31.3210   -14.5690    34.5930 ca         1 VQK      -0.124000
      4 C6         -32.2130   -13.5060    34.4800 ca         1 VQK      -0.082000
      5 C7         -31.8870   -12.3640    33.7640 ca         1 VQK      -0.123000
      6 C8         -30.6400   -12.2590    33.1420 ca         1 VQK      -0.050300
      7 C10        -30.6660    -9.7140    32.9840 c3         1 VQK       0.164600
      8 C13        -26.7410    -8.6850    34.3410 ca         1 VQK       0.165000
      9 C15        -27.4780    -9.0870    36.5690 ca         1 VQK      -0.066000
     10 C17        -30.6220    -8.9950    37.4650 ca         1 VQK       0.151100
     11 C20        -32.5500    -7.3280    38.6170 ca         1 VQK      -0.104000
     12 C21        -32.5280    -8.7010    38.8850 ca         1 VQK       0.024000
     13 C22        -33.5030    -9.2530    39.7690 cg         1 VQK       0.322000
     14 C24        -29.7500   -13.3190    33.2520 ca         1 VQK      -0.160000
     15 C1         -27.6660   -18.6310    35.0990 c2         1 VQK      -0.224000
     16 C2         -27.8920   -17.4910    34.4430 ce         1 VQK      -0.305200
     17 C3         -29.0400   -16.6020    34.7810 c          1 VQK       0.606300
     18 N2         -34.2900    -9.6980    40.4830 n1         1 VQK      -0.440000
     19 C9         -30.2420   -11.0350    32.3510 c3         1 VQK      -0.061100
     20 C11        -29.0200    -9.3490    34.7140 ca         1 VQK       0.157100
     21 C12        -27.9980    -9.0000    33.8320 ca         1 VQK      -0.193000
     22 C14        -26.4590    -8.7170    35.6970 ca         1 VQK      -0.134000
     23 C16        -28.7310    -9.4090    36.0860 ca         1 VQK       0.047100
     24 O1         -29.8240   -16.8440    35.6930 o          1 VQK      -0.584100
     25 O2         -30.2940    -9.6170    34.3680 os         1 VQK      -0.328100
     26 C18        -30.6230    -7.6350    37.1720 ca         1 VQK      -0.159000
     27 C19        -31.5900    -6.8270    37.7580 ca         1 VQK       0.149000
     28 C23        -31.5730    -9.5390    38.3200 ca         1 VQK      -0.102000
     29 O3         -29.7050    -9.8670    36.9590 os         1 VQK      -0.229200
     30 CL2        -31.5800    -5.1220    37.3970 cl         1 VQK      -0.196000
     31 H1         -28.3720   -15.3910    33.3090 hn         1 VQK       0.148000
     32 H2         -31.5870   -15.4530    35.1450 ha         1 VQK       0.147000
     33 H3         -33.1760   -13.5780    34.9620 ha         1 VQK       0.117000
     34 H4         -32.6000   -11.5560    33.6990 ha         1 VQK       0.112000
     35 H5         -30.2650    -8.8690    32.4220 h1         1 VQK       0.060700
     36 H6         -31.7490    -9.6190    32.9980 h1         1 VQK       0.060700
     37 H7         -27.2950    -9.1380    37.6350 ha         1 VQK       0.138000
     38 H8         -33.2900    -6.6850    39.0650 ha         1 VQK       0.143000
     39 H9         -28.7780   -13.2530    32.7760 ha         1 VQK       0.106000
     40 H10        -28.3170   -18.9420    35.9100 ha         1 VQK       0.179000
     41 H11        -26.8430   -19.2850    34.8400 ha         1 VQK       0.179000
     42 H12        -27.2420   -17.1820    33.6300 ha         1 VQK       0.176000
     43 H13        -30.6940   -11.0680    31.3550 hc         1 VQK       0.057700
     44 H14        -29.1610   -11.0490    32.2020 hc         1 VQK       0.057700
     45 H15        -28.1720    -8.9590    32.7680 ha         1 VQK       0.136000
     46 H16        -25.4730    -8.4660    36.0660 ha         1 VQK       0.140000
     47 H17        -29.8870    -7.2110    36.5110 ha         1 VQK       0.142000
     48 H18        -31.5580   -10.5970    38.5370 ha         1 VQK       0.148000
     49 CL1        -25.4710    -8.2450    33.2170 cl         1 VQK      -0.204000
@<TRIPOS>BOND
     1     1     2 1   
     2     1    17 1   
     3     1    31 1   
     4     2     3 ar  
     5     2    14 ar  
     6     3     4 ar  
     7     3    32 1   
     8     4     5 ar  
     9     4    33 1   
    10     5     6 ar  
    11     5    34 1   
    12     6    14 ar  
    13     6    19 1   
    14     7    19 1   
    15     7    25 1   
    16     7    35 1   
    17     7    36 1   
    18     8    21 ar  
    19     8    22 ar  
    20     8    49 1   
    21     9    22 ar  
    22     9    23 ar  
    23     9    37 1   
    24    10    26 ar  
    25    10    28 ar  
    26    10    29 1   
    27    11    12 ar  
    28    11    27 ar  
    29    11    38 1   
    30    12    13 1   
    31    12    28 ar  
    32    13    18 3   
    33    14    39 1   
    34    15    16 2   
    35    15    40 1   
    36    15    41 1   
    37    16    17 1   
    38    16    42 1   
    39    17    24 2   
    40    19    43 1   
    41    19    44 1   
    42    20    21 ar  
    43    20    23 ar  
    44    20    25 1   
    45    21    45 1   
    46    22    46 1   
    47    23    29 1   
    48    26    27 ar  
    49    26    47 1   
    50    27    30 1   
    51    28    48 1   
@<TRIPOS>SUBSTRUCTURE
     1 VQK         1 TEMP              0 ****  ****    0 ROOT
