@<TRIPOS>MOLECULE
VQK
   49    51     1     0     0
SMALL
No Charge or Current Charge


@<TRIPOS>ATOM
      1 N1         -29.5310   -14.4120    35.0030 ns         1 VQK      -0.148000
      2 C4         -30.5860   -13.5560    34.5850 ca         1 VQK      -0.017000
      3 C5         -31.9370   -13.7480    34.9500 ca         1 VQK      -0.124000
      4 C6         -32.9220   -12.8470    34.5120 ca         1 VQK      -0.082000
      5 C7         -32.5710   -11.7530    33.7050 ca         1 VQK      -0.123000
      6 C8         -31.2320   -11.5570    33.3240 ca         1 VQK      -0.050300
      7 C10        -30.8820    -9.0270    33.2450 c3         1 VQK       0.164600
      8 C13        -26.5380    -8.8790    33.3170 ca         1 VQK       0.165000
      9 C15        -26.6250   -10.1660    35.3760 ca         1 VQK      -0.066000
     10 C17        -29.8270   -10.1340    37.0480 ca         1 VQK       0.151100
     11 C20        -32.1800    -9.1340    38.2070 ca         1 VQK      -0.104000
     12 C21        -32.1140   -10.4850    37.8110 ca         1 VQK       0.024000
     13 C22        -33.2500   -11.3500    37.9820 cg         1 VQK       0.322000
     14 C24        -30.2490   -12.4630    33.7660 ca         1 VQK      -0.160000
     15 C1         -27.8140   -17.0520    36.9350 c2         1 VQK      -0.224000
     16 C2         -28.1370   -16.0920    36.0320 ce         1 VQK      -0.305200
     17 C3         -29.4800   -15.4420    35.9310 c          1 VQK       0.606300
     18 N2         -34.1790   -12.0450    38.1200 n1         1 VQK      -0.440000
     19 C9         -30.8440   -10.3600    32.4620 c3         1 VQK      -0.061100
     20 C11        -28.6900    -9.2960    34.3910 ca         1 VQK       0.157100
     21 C12        -27.9320    -8.7270    33.3440 ca         1 VQK      -0.193000
     22 C14        -25.8840    -9.5980    34.3270 ca         1 VQK      -0.134000
     23 C16        -28.0220   -10.0110    35.4240 ca         1 VQK       0.047100
     24 O1         -30.4210   -15.7900    36.6350 o          1 VQK      -0.584100
     25 O2         -30.0670    -9.1580    34.4260 os         1 VQK      -0.328100
     26 C18        -29.8890    -8.7900    37.4550 ca         1 VQK      -0.159000
     27 C19        -31.0680    -8.2940    38.0320 ca         1 VQK       0.149000
     28 C23        -30.9280   -10.9820    37.2400 ca         1 VQK      -0.102000
     29 O3         -28.6930   -10.6400    36.4570 os         1 VQK      -0.229200
     30 Cl2        -31.1540    -6.6100    38.5300 cl         1 VQK      -0.196000
     31 H1         -28.6530   -14.2350    34.5330 hn         1 VQK       0.148000
     32 H2         -32.2430   -14.5860    35.5670 ha         1 VQK       0.147000
     33 H3         -33.9610   -12.9970    34.8000 ha         1 VQK       0.117000
     34 H4         -33.3410   -11.0600    33.3750 ha         1 VQK       0.112000
     35 H5         -30.5570    -8.1940    32.6100 h1         1 VQK       0.060700
     36 H6         -31.9200    -8.8240    33.5380 h1         1 VQK       0.060700
     37 H7         -26.1180   -10.7310    36.1550 ha         1 VQK       0.138000
     38 H8         -33.0900    -8.7350    38.6510 ha         1 VQK       0.143000
     39 H9         -29.2110   -12.3060    33.4830 ha         1 VQK       0.106000
     40 H10        -28.5370   -17.4310    37.6610 ha         1 VQK       0.179000
     41 H11        -26.8150   -17.4890    36.9770 ha         1 VQK       0.179000
     42 H12        -27.3840   -15.7320    35.3310 ha         1 VQK       0.176000
     43 H13        -31.5290   -10.2810    31.6090 hc         1 VQK       0.057700
     44 H14        -29.8460   -10.4980    32.0320 hc         1 VQK       0.057700
     45 H15        -28.4050    -8.1590    32.5500 ha         1 VQK       0.136000
     46 H16        -24.8030    -9.7160    34.2960 ha         1 VQK       0.140000
     47 H17        -29.0350    -8.1350    37.3160 ha         1 VQK       0.142000
     48 H18        -30.8610   -12.0210    36.9300 ha         1 VQK       0.148000
     49 Cl1        -25.6080    -8.1670    32.0070 cl         1 VQK      -0.204000
@<TRIPOS>BOND
     1     1     2 1   
     2     1    17 1   
     3     1    31 1   
     4     2     3 ar  
     5     2    14 ar  
     6     3     4 ar  
     7     3    32 1   
     8     4     5 ar  
     9     4    33 1   
    10     5     6 ar  
    11     5    34 1   
    12     6    14 ar  
    13     6    19 1   
    14     7    19 1   
    15     7    25 1   
    16     7    35 1   
    17     7    36 1   
    18     8    21 ar  
    19     8    22 ar  
    20     8    49 1   
    21     9    22 ar  
    22     9    23 ar  
    23     9    37 1   
    24    10    26 ar  
    25    10    28 ar  
    26    10    29 1   
    27    11    12 ar  
    28    11    27 ar  
    29    11    38 1   
    30    12    13 1   
    31    12    28 ar  
    32    13    18 3   
    33    14    39 1   
    34    15    16 2   
    35    15    40 1   
    36    15    41 1   
    37    16    17 1   
    38    16    42 1   
    39    17    24 2   
    40    19    43 1   
    41    19    44 1   
    42    20    21 ar  
    43    20    23 ar  
    44    20    25 1   
    45    21    45 1   
    46    22    46 1   
    47    23    29 1   
    48    26    27 ar  
    49    26    47 1   
    50    27    30 1   
    51    28    48 1   
@<TRIPOS>SUBSTRUCTURE
     1 VQK         1 TEMP              0 ****  ****    0 ROOT
