@<TRIPOS>MOLECULE
VQL
   24    25     1     0     0
SMALL
abcg2


@<TRIPOS>ATOM
      1 N1           9.5710    -1.8180    -9.7120 nb         1 VQL      -0.254000
      2 C7          11.5380     1.6490   -13.0380 c3         1 VQL       0.023900
      3 N2          10.4950    -0.5990   -11.5450 nb         1 VQL      -0.305000
      4 C1           8.2190    -1.6510    -5.8370 cc         1 VQL       0.438700
      5 C5          10.0420    -1.7330   -10.9720 ca         1 VQL       0.411900
      6 C6          10.4490     0.4680   -10.7620 ca         1 VQL       0.292300
      7 N3          10.0030     0.5010    -9.5020 nb         1 VQL      -0.251000
      8 C4           9.5740    -0.6770    -9.0280 ca         1 VQL       0.180000
      9 C3           9.0230     0.4220    -6.8440 cc         1 VQL      -0.196000
     10 C2           9.0730    -0.6860    -7.6450 cd         1 VQL       0.213000
     11 N4          10.0610    -2.8510   -11.7060 nv         1 VQL      -1.065900
     12 S1          11.0070     2.0250   -11.3500 ss         1 VQL      -0.304300
     13 N            8.6140    -1.8470    -7.0580 nd         1 VQL      -0.599000
     14 S            8.3860     0.0110    -5.3130 ss         1 VQL      -0.054400
     15 H1          11.9030     2.5920   -13.4420 h1         1 VQL       0.071367
     16 H2          12.3390     0.9140   -13.0320 h1         1 VQL       0.071367
     17 H3          10.7010     1.2910   -13.6320 h1         1 VQL       0.071367
     18 H4           9.3250     1.4260    -7.0870 h4         1 VQL       0.181000
     19 H5          10.4050    -2.8280   -12.6510 hn         1 VQL       0.511000
     20 H6           9.7310    -3.7160   -11.3130 hn         1 VQL       0.511000
     21 H7           7.6550    -3.6550    -5.4600 hc         1 VQL       0.059700
     22 H8           8.2860    -2.8040    -4.0360 hc         1 VQL       0.059700
     23 H9           6.6580    -2.4550    -4.6140 hc         1 VQL       0.059700
     24 C            7.6720    -2.7030    -4.9330 c3         1 VQL      -0.126400
@<TRIPOS>BOND
     1     1     5 ar  
     2     1     8 ar  
     3     2    12 1   
     4     2    15 1   
     5     2    16 1   
     6     2    17 1   
     7     3     5 ar  
     8     3     6 ar  
     9     4    13 2   
    10     4    14 1   
    11     4    24 1   
    12     5    11 1   
    13     6     7 ar  
    14     6    12 1   
    15     7     8 ar  
    16     8    10 1   
    17     9    10 2   
    18     9    14 1   
    19     9    18 1   
    20    10    13 1   
    21    11    19 1   
    22    11    20 1   
    23    21    24 1   
    24    22    24 1   
    25    23    24 1   
@<TRIPOS>SUBSTRUCTURE
     1 VQL         1 TEMP              0 ****  ****    0 ROOT
