@<TRIPOS>MOLECULE
VQL
   24    25     1     0     0
SMALL
No Charge or Current Charge


@<TRIPOS>ATOM
      1 N1           9.4390    -1.7860    -9.7740 nb         1 VQL      -0.254000
      2 C7          11.6860     1.6420   -13.0990 c3         1 VQL       0.023900
      3 N2          10.4640    -0.5740   -11.5590 nb         1 VQL      -0.305000
      4 C1           8.2240    -1.6610    -5.7790 cc         1 VQL       0.438700
      5 C5           9.9220    -1.6690   -11.0170 ca         1 VQL       0.411900
      6 C6          10.5060     0.4960   -10.7390 ca         1 VQL       0.292300
      7 N3          10.0510     0.5030    -9.4690 nb         1 VQL      -0.251000
      8 C4           9.5250    -0.6630    -9.0220 ca         1 VQL       0.180000
      9 C3           8.7860     0.4240    -6.8580 cc         1 VQL      -0.196000
     10 C2           9.0030    -0.6990    -7.6300 cd         1 VQL       0.213000
     11 N4           9.8610    -2.7660   -11.8060 nv         1 VQL      -1.065900
     12 S1          11.2070     2.0250   -11.3530 ss         1 VQL      -0.304300
     13 N            8.6730    -1.8990    -7.0030 nd         1 VQL      -0.599000
     14 S            8.1620     0.0110    -5.2870 ss         1 VQL      -0.054400
     15 H1          12.1290     2.5320   -13.5640 h1         1 VQL       0.071367
     16 H2          12.4210     0.8270   -13.1150 h1         1 VQL       0.071367
     17 H3          10.8000     1.3420   -13.6730 h1         1 VQL       0.071367
     18 H4           8.9530     1.4620    -7.1130 h4         1 VQL       0.181000
     19 H5          10.4240    -2.7780   -12.6540 hn         1 VQL       0.511000
     20 H6           9.6820    -3.6680   -11.3700 hn         1 VQL       0.511000
     21 H7           7.7830    -3.7230    -5.3380 hc         1 VQL       0.059700
     22 H8           8.4640    -2.8060    -3.9810 hc         1 VQL       0.059700
     23 H9           6.7760    -2.5500    -4.4680 hc         1 VQL       0.059700
     24 C            7.7880    -2.7460    -4.8410 c3         1 VQL      -0.126400
@<TRIPOS>BOND
     1     1     5 ar  
     2     1     8 ar  
     3     2    12 1   
     4     2    15 1   
     5     2    16 1   
     6     2    17 1   
     7     3     5 ar  
     8     3     6 ar  
     9     4    13 2   
    10     4    14 1   
    11     4    24 1   
    12     5    11 1   
    13     6     7 ar  
    14     6    12 1   
    15     7     8 ar  
    16     8    10 1   
    17     9    10 2   
    18     9    14 1   
    19     9    18 1   
    20    10    13 1   
    21    11    19 1   
    22    11    20 1   
    23    21    24 1   
    24    22    24 1   
    25    23    24 1   
@<TRIPOS>SUBSTRUCTURE
     1 VQL         1 TEMP              0 ****  ****    0 ROOT
