@<TRIPOS>MOLECULE
VQN
  121   127     1     0     0
SMALL
abcg2


@<TRIPOS>ATOM
      1 C10         11.6750   -25.8690     3.0370 c3         1 VQN       0.231900
      2 C13          8.2100   -25.6610     1.5130 ca         1 VQN      -0.110000
      3 C15          8.6110   -27.9330     2.1790 ca         1 VQN      -0.110000
      4 C17         14.5890   -27.5780    -1.3330 c          1 VQN       0.605100
      5 C20         12.7640   -28.6770    -2.5750 c3         1 VQN       0.155900
      6 C21         13.5060   -29.7600    -3.3170 c2         1 VQN      -0.183200
      7 C22         14.3310   -30.6750    -2.8190 ce         1 VQN      -0.264200
      8 C26         14.3470   -31.2250     0.9250 c6         1 VQN       0.089000
      9 C01         17.9440   -24.6860     0.8740 c3         1 VQN      -0.087600
     10 C03         16.5220   -25.8160     2.5870 c3         1 VQN      -0.087600
     11 C04         15.9860   -25.9940     0.0810 c3         1 VQN      -0.094400
     12 C05         15.1740   -27.2930     0.0590 c3         1 VQN       0.047700
     13 N06         14.2100   -27.4350     1.1330 ns         1 VQN      -0.504900
     14 C07         13.2360   -26.5310     1.3870 c          1 VQN       0.633100
     15 O08         12.8650   -25.6660     0.6240 o          1 VQN      -0.520000
     16 O09         12.7230   -26.7350     2.6060 os         1 VQN      -0.466100
     17 C11         10.3290   -26.2690     2.5010 ca         1 VQN      -0.120300
     18 C12          9.4860   -25.3150     1.9390 ca         1 VQN      -0.081500
     19 C14          7.7690   -26.9710     1.6310 ca         1 VQN      -0.092000
     20 C16          9.8800   -27.5830     2.6140 ca         1 VQN      -0.081500
     21 N19         13.4310   -28.2520    -1.3610 ns         1 VQN      -0.491900
     22 C23         14.8200   -30.7690    -1.4110 c          1 VQN       0.611300
     23 O24         15.9860   -30.4820    -1.1570 o          1 VQN      -0.606100
     24 N25         13.9610   -31.2130    -0.4780 n          1 VQN      -0.412800
     25 C27         13.1230   -30.9720     1.7910 c6         1 VQN       0.161800
     26 N28         12.0580   -31.9480     1.5850 n3         1 VQN      -0.745600
     27 C29         11.8320   -32.8320     2.7090 c3         1 VQN       0.184800
     28 C30         11.1560   -32.1350     3.8840 c6         1 VQN      -0.060700
     29 C31         10.9710   -33.0890     5.0600 c6         1 VQN      -0.108900
     30 C32         10.2590   -32.4070     6.2260 c6         1 VQN       0.199300
     31 N33          8.9700   -31.8510     5.8130 nh         1 VQN      -0.789400
     32 C34          7.8300   -32.6140     5.9000 ca         1 VQN       0.295000
     33 C35          6.9450   -32.7890     4.8200 ca         1 VQN      -0.099000
     34 C36          5.8120   -33.5430     5.0000 ca         1 VQN      -0.126600
     35 C37          4.7540   -33.8950     4.0260 c          1 VQN       0.593600
     36 O38          4.6510   -33.5730     2.8710 o          1 VQN      -0.483000
     37 N39          3.8580   -34.7020     4.7190 n          1 VQN      -0.394400
     38 C40          2.6770   -35.2710     4.1040 c6         1 VQN       0.040700
     39 C41          1.4110   -34.4490     4.2980 c6         1 VQN      -0.086400
     40 C42          0.7620   -34.6860     5.6500 c6         1 VQN      -0.162400
     41 C43          0.5550   -36.1450     5.9350 c          1 VQN       0.588000
     42 O44         -0.2850   -36.5710     6.6930 o          1 VQN      -0.512000
     43 N45          1.3980   -37.0240     5.2770 ns         1 VQN      -0.467500
     44 C46          2.5210   -36.7210     4.5500 c          1 VQN       0.577000
     45 O47          3.3190   -37.5700     4.2340 o          1 VQN      -0.506000
     46 C48          4.2530   -34.9020     6.0380 c          1 VQN       0.598600
     47 O49          3.6540   -35.5780     6.8380 o          1 VQN      -0.488000
     48 C50          5.5060   -34.1510     6.2020 ca         1 VQN      -0.163600
     49 C51          6.3260   -33.9850     7.3010 ca         1 VQN      -0.053000
     50 C52          7.4490   -33.2040     7.1270 ca         1 VQN       0.129000
     51 F53          8.2050   -32.9640     8.2070 f          1 VQN      -0.168000
     52 C54          9.1210   -30.9220     4.7030 c6         1 VQN       0.199300
     53 C55          9.8080   -31.5390     3.4900 c6         1 VQN      -0.108900
     54 C56         12.1730   -32.6500     0.3220 c6         1 VQN       0.161800
     55 C57         12.6180   -31.7000    -0.7740 c6         1 VQN       0.089000
     56 C58         12.4090   -27.5260    -3.5270 c3         1 VQN      -0.073400
     57 C59         11.7330   -26.3190    -2.8710 c5         1 VQN      -0.149700
     58 C60         11.3700   -25.2380    -3.8920 c5         1 VQN      -0.090400
     59 C61          9.9310   -25.5710    -4.2960 c5         1 VQN       0.098000
     60 N62          9.4320   -26.2420    -3.1160 ns         1 VQN      -0.516900
     61 C63         10.3830   -26.7100    -2.2900 c          1 VQN       0.562000
     62 O64         10.1910   -27.3620    -1.2740 o          1 VQN      -0.561000
     63 H1          11.8980   -24.8310     2.7880 h1         1 VQN       0.064200
     64 H2          11.6850   -25.9580     4.1240 h1         1 VQN       0.064200
     65 H3           7.5640   -24.9070     1.0830 ha         1 VQN       0.108500
     66 H4           8.2710   -28.9570     2.2720 ha         1 VQN       0.108500
     67 H5          11.8220   -29.1170    -2.2380 h1         1 VQN       0.069700
     68 H6          13.3060   -29.8000    -4.3840 ha         1 VQN       0.179000
     69 H7          14.7890   -31.3840    -3.5010 ha         1 VQN       0.197000
     70 H9          15.0860   -30.4470     1.1060 h1         1 VQN       0.055450
     71 H10         18.7520   -24.6000     1.6020 hc         1 VQN       0.032200
     72 H11         18.3940   -24.7420    -0.1190 hc         1 VQN       0.032200
     73 H12         17.3590   -23.7640     0.9200 hc         1 VQN       0.032200
     74 H14         17.3330   -25.6280     3.2930 hc         1 VQN       0.032200
     75 H15         15.8060   -24.9960     2.6860 hc         1 VQN       0.032200
     76 H16         16.0290   -26.7310     2.9100 hc         1 VQN       0.032200
     77 H17         16.4830   -25.9160    -0.8860 hc         1 VQN       0.073200
     78 H18         15.3200   -25.1300     0.1500 hc         1 VQN       0.073200
     79 H19         15.8750   -28.1200     0.2100 h1         1 VQN       0.085700
     80 H20         14.4630   -28.0540     1.8870 hn         1 VQN       0.319500
     81 H21          9.8280   -24.2920     1.8390 ha         1 VQN       0.111000
     82 H22          6.7760   -27.2440     1.2980 ha         1 VQN       0.110000
     83 H23         10.5210   -28.3400     3.0520 ha         1 VQN       0.111000
     84 H24         12.9710   -28.4490    -0.4880 hn         1 VQN       0.336500
     85 H25         13.4470   -30.9810     2.8340 h1         1 VQN       0.047700
     86 H26         12.7560   -29.9580     1.5950 h1         1 VQN       0.047700
     87 H28         11.1800   -33.6450     2.3720 h1         1 VQN       0.034200
     88 H29         12.7650   -33.3120     3.0540 h1         1 VQN       0.034200
     89 H30         11.7950   -31.3120     4.2320 hc         1 VQN       0.048700
     90 H31         10.3920   -33.9640     4.7440 hc         1 VQN       0.055700
     91 H32         11.9400   -33.4580     5.4070 hc         1 VQN       0.055700
     92 H33         10.1320   -33.1100     7.0440 h1         1 VQN       0.061950
     93 H34         10.8730   -31.5840     6.6020 h1         1 VQN       0.061950
     94 H35          7.1560   -32.3560     3.8530 ha         1 VQN       0.144000
     95 H36          2.8920   -35.3250     3.0340 h1         1 VQN       0.103700
     96 H37          1.6350   -33.3920     4.1590 hc         1 VQN       0.066700
     97 H38          0.7110   -34.7250     3.5070 hc         1 VQN       0.066700
     98 H39          1.3630   -34.2690     6.4620 hc         1 VQN       0.085200
     99 H40         -0.2080   -34.1930     5.7050 hc         1 VQN       0.085200
    100 H41          1.2780   -38.0040     5.5090 hn         1 VQN       0.331500
    101 H42          6.0990   -34.4100     8.2700 ha         1 VQN       0.155000
    102 H43          9.7290   -30.0870     5.0660 h1         1 VQN       0.061950
    103 H44          8.1490   -30.4980     4.4450 h1         1 VQN       0.061950
    104 H45          9.9420   -30.7760     2.7210 hc         1 VQN       0.055700
    105 H46          9.1820   -32.3220     3.0480 hc         1 VQN       0.055700
    106 H47         11.1990   -33.0620     0.0470 h1         1 VQN       0.047700
    107 H48         12.8730   -33.5000     0.3600 h1         1 VQN       0.047700
    108 H49         11.9010   -30.8760    -0.8450 h1         1 VQN       0.055450
    109 H50         12.6120   -32.2260    -1.7270 h1         1 VQN       0.055450
    110 H51         11.7560   -27.9370    -4.3040 hc         1 VQN       0.056700
    111 H52         13.3050   -27.1750    -4.0400 hc         1 VQN       0.056700
    112 H53         12.3700   -25.9270    -2.0770 hc         1 VQN       0.110700
    113 H54         12.0430   -25.2110    -4.7470 hc         1 VQN       0.060200
    114 H55         11.3970   -24.2550    -3.4180 hc         1 VQN       0.060200
    115 H56          9.3440   -24.6820    -4.5230 h1         1 VQN       0.040700
    116 H57          9.8930   -26.2280    -5.1710 h1         1 VQN       0.040700
    117 H58          8.4600   -26.4840    -2.9980 hn         1 VQN       0.322500
    118 O18         15.2040   -27.2650    -2.3400 o          1 VQN      -0.601100
    119 C02         17.0650   -25.9010     1.1630 c3         1 VQN      -0.061700
    120 H8          14.8130   -32.1790     1.1920 h1         1 VQN       0.055450
    121 H13         17.6930   -26.7970     1.0880 hc         1 VQN       0.046700
@<TRIPOS>BOND
     1     1    16 1   
     2     1    17 1   
     3     1    63 1   
     4     1    64 1   
     5     2    18 ar  
     6     2    19 ar  
     7     2    65 1   
     8     3    19 ar  
     9     3    20 ar  
    10     3    66 1   
    11     4    12 1   
    12     4    21 1   
    13     4   118 2   
    14     5     6 1   
    15     5    21 1   
    16     5    56 1   
    17     5    67 1   
    18     6     7 2   
    19     6    68 1   
    20     7    22 1   
    21     7    69 1   
    22     8    24 1   
    23     8    25 1   
    24     8    70 1   
    25     8   120 1   
    26     9    71 1   
    27     9    72 1   
    28     9    73 1   
    29     9   119 1   
    30    10    74 1   
    31    10    75 1   
    32    10    76 1   
    33    10   119 1   
    34    11    12 1   
    35    11    77 1   
    36    11    78 1   
    37    11   119 1   
    38    12    13 1   
    39    12    79 1   
    40    13    14 1   
    41    13    80 1   
    42    14    15 2   
    43    14    16 1   
    44    17    18 ar  
    45    17    20 ar  
    46    18    81 1   
    47    19    82 1   
    48    20    83 1   
    49    21    84 1   
    50    22    23 2   
    51    22    24 1   
    52    24    55 1   
    53    25    26 1   
    54    25    85 1   
    55    25    86 1   
    56    26    27 1   
    57    26    54 1   
    58    27    28 1   
    59    27    87 1   
    60    27    88 1   
    61    28    29 1   
    62    28    53 1   
    63    28    89 1   
    64    29    30 1   
    65    29    90 1   
    66    29    91 1   
    67    30    31 1   
    68    30    92 1   
    69    30    93 1   
    70    31    32 1   
    71    31    52 1   
    72    32    33 ar  
    73    32    50 ar  
    74    33    34 ar  
    75    33    94 1   
    76    34    35 1   
    77    34    48 ar  
    78    35    36 2   
    79    35    37 1   
    80    37    38 1   
    81    37    46 1   
    82    38    39 1   
    83    38    44 1   
    84    38    95 1   
    85    39    40 1   
    86    39    96 1   
    87    39    97 1   
    88    40    41 1   
    89    40    98 1   
    90    40    99 1   
    91    41    42 2   
    92    41    43 1   
    93    43    44 1   
    94    43   100 1   
    95    44    45 2   
    96    46    47 2   
    97    46    48 1   
    98    48    49 ar  
    99    49    50 ar  
   100    49   101 1   
   101    50    51 1   
   102    52    53 1   
   103    52   102 1   
   104    52   103 1   
   105    53   104 1   
   106    53   105 1   
   107    54    55 1   
   108    54   106 1   
   109    54   107 1   
   110    55   108 1   
   111    55   109 1   
   112    56    57 1   
   113    56   110 1   
   114    56   111 1   
   115    57    58 1   
   116    57    61 1   
   117    57   112 1   
   118    58    59 1   
   119    58   113 1   
   120    58   114 1   
   121    59    60 1   
   122    59   115 1   
   123    59   116 1   
   124    60    61 1   
   125    60   117 1   
   126    61    62 2   
   127   119   121 1   
@<TRIPOS>SUBSTRUCTURE
     1 VQN         1 TEMP              0 ****  ****    0 ROOT
