@<TRIPOS>MOLECULE
VQN
  121   127     1     0     0
SMALL
No Charge or Current Charge


@<TRIPOS>ATOM
      1 C10         10.9720   -26.4470     2.4140 c3         1 VQN       0.231900
      2 C13          8.6560   -26.6830    -0.6440 ca         1 VQN      -0.110000
      3 C15          8.9670   -28.9160     0.2680 ca         1 VQN      -0.110000
      4 C17         15.4660   -26.9950    -0.9720 c          1 VQN       0.605100
      5 C20         14.0200   -28.0260    -2.7940 c3         1 VQN       0.155900
      6 C21         15.0320   -29.0760    -3.2410 c2         1 VQN      -0.183200
      7 C22         15.6380   -30.0830    -2.5480 ce         1 VQN      -0.264200
      8 C26         14.1290   -30.8350     0.9860 c6         1 VQN       0.089000
      9 C01         17.0820   -23.4050     2.2530 c3         1 VQN      -0.087600
     10 C03         15.4950   -25.0370     3.3780 c3         1 VQN      -0.087600
     11 C04         15.9270   -25.1650     0.8110 c3         1 VQN      -0.094400
     12 C05         15.5220   -26.6520     0.5540 c3         1 VQN       0.047700
     13 N06         14.2960   -27.0670     1.2890 ns         1 VQN      -0.504900
     14 C07         13.0810   -26.4360     1.2590 c          1 VQN       0.633100
     15 O08         12.7620   -25.5520     0.4830 o          1 VQN      -0.520000
     16 O09         12.3070   -26.9580     2.2480 os         1 VQN      -0.466100
     17 C11         10.0700   -27.0080     1.3190 ca         1 VQN      -0.120300
     18 C12          9.4940   -26.1560     0.3550 ca         1 VQN      -0.081500
     19 C14          8.3940   -28.0630    -0.6900 ca         1 VQN      -0.092000
     20 C16          9.7950   -28.3880     1.2720 ca         1 VQN      -0.081500
     21 N19         14.3010   -27.5860    -1.4240 ns         1 VQN      -0.491900
     22 C23         15.4610   -30.5560    -1.1340 c          1 VQN       0.611300
     23 O24         16.4280   -31.0370    -0.5590 o          1 VQN      -0.606100
     24 N25         14.2180   -30.4920    -0.4680 n          1 VQN      -0.412800
     25 C27         12.6860   -30.7050     1.5450 c6         1 VQN       0.161800
     26 N28         11.7030   -31.5840     0.8280 n3         1 VQN      -0.745600
     27 C29         11.4620   -32.9100     1.4560 c3         1 VQN       0.184800
     28 C30         10.7420   -32.8970     2.8420 c6         1 VQN      -0.060700
     29 C31         10.6220   -34.3310     3.4240 c6         1 VQN      -0.108900
     30 C32          9.8950   -34.3320     4.7900 c6         1 VQN       0.199300
     31 N33          8.5640   -33.6740     4.6770 nh         1 VQN      -0.789400
     32 C34          7.4580   -34.0850     5.4720 ca         1 VQN       0.295000
     33 C35          6.1830   -34.1170     4.8620 ca         1 VQN      -0.099000
     34 C36          5.0760   -34.5200     5.6220 ca         1 VQN      -0.126600
     35 C37          3.6410   -34.6510     5.2380 c          1 VQN       0.593600
     36 O38          3.1380   -34.4280     4.1470 o          1 VQN      -0.483000
     37 N39          2.9840   -35.0840     6.3930 n          1 VQN      -0.394400
     38 C40          1.5210   -35.3830     6.4380 c6         1 VQN       0.040700
     39 C41          0.7070   -34.1260     6.8580 c6         1 VQN      -0.086400
     40 C42          0.4550   -34.0710     8.3840 c6         1 VQN      -0.162400
     41 C43         -0.0820   -35.3910     8.9480 c          1 VQN       0.588000
     42 O44         -0.8410   -35.4300     9.9020 o          1 VQN      -0.512000
     43 N45          0.2720   -36.5280     8.2820 ns         1 VQN      -0.467500
     44 C46          1.1540   -36.6630     7.2460 c          1 VQN       0.577000
     45 O47          1.5900   -37.7630     6.9460 o          1 VQN      -0.506000
     46 C48          3.8610   -35.2610     7.4710 c          1 VQN       0.598600
     47 O49          3.5810   -35.6300     8.6010 o          1 VQN      -0.488000
     48 C50          5.2060   -34.8860     6.9510 ca         1 VQN      -0.163600
     49 C51          6.4500   -34.8650     7.5950 ca         1 VQN      -0.053000
     50 C52          7.5790   -34.4620     6.8500 ca         1 VQN       0.129000
     51 F53          8.7760   -34.4190     7.4850 f          1 VQN      -0.168000
     52 C54          8.6140   -32.2880     4.1340 c6         1 VQN       0.199300
     53 C55          9.3260   -32.2640     2.7620 c6         1 VQN      -0.108900
     54 C56         12.0170   -31.7090    -0.6340 c6         1 VQN       0.161800
     55 C57         12.9060   -30.5580    -1.1850 c6         1 VQN       0.089000
     56 C58         13.9310   -26.8240    -3.7760 c3         1 VQN      -0.073400
     57 C59         12.7660   -25.8290    -3.4920 c5         1 VQN      -0.149700
     58 C60         12.7830   -24.5590    -4.3880 c5         1 VQN      -0.090400
     59 C61         12.0090   -25.0410    -5.6460 c5         1 VQN       0.098000
     60 N62         11.0330   -25.9400    -5.0350 ns         1 VQN      -0.516900
     61 C63         11.4210   -26.4770    -3.8370 c          1 VQN       0.562000
     62 O64         10.7030   -27.1830    -3.1520 o          1 VQN      -0.561000
     63 H1          10.9620   -25.3490     2.4010 h1         1 VQN       0.064200
     64 H2          10.5710   -26.7630     3.3860 h1         1 VQN       0.064200
     65 H3           8.2180   -26.0220    -1.3880 ha         1 VQN       0.108500
     66 H4           8.7700   -29.9850     0.2330 ha         1 VQN       0.108500
     67 H5          13.0310   -28.4970    -2.7990 h1         1 VQN       0.069700
     68 H6          15.3620   -28.9140    -4.2690 ha         1 VQN       0.179000
     69 H7          16.4470   -30.6130    -3.0460 ha         1 VQN       0.197000
     70 H9          14.7950   -30.1690     1.5520 h1         1 VQN       0.055450
     71 H10         17.5470   -23.1940     3.2240 hc         1 VQN       0.032200
     72 H11         17.8490   -23.2750     1.4800 hc         1 VQN       0.032200
     73 H12         16.2920   -22.6630     2.0820 hc         1 VQN       0.032200
     74 H14         15.9140   -24.6710     4.3240 hc         1 VQN       0.032200
     75 H15         14.5650   -24.4890     3.1840 hc         1 VQN       0.032200
     76 H16         15.2560   -26.0960     3.5220 hc         1 VQN       0.032200
     77 H17         16.7040   -24.9030     0.0820 hc         1 VQN       0.073200
     78 H18         15.0880   -24.4960     0.5910 hc         1 VQN       0.073200
     79 H19         16.3380   -27.2790     0.9340 h1         1 VQN       0.085700
     80 H20         14.3870   -27.7710     2.0110 hn         1 VQN       0.319500
     81 H21          9.6970   -25.0880     0.3760 ha         1 VQN       0.111000
     82 H22          7.7530   -28.4700    -1.4690 ha         1 VQN       0.110000
     83 H23         10.2290   -29.0520     2.0150 ha         1 VQN       0.111000
     84 H24         13.5920   -27.7370    -0.7190 hn         1 VQN       0.336500
     85 H25         12.7000   -30.8990     2.6250 h1         1 VQN       0.047700
     86 H26         12.3860   -29.6550     1.4280 h1         1 VQN       0.047700
     87 H28         10.8440   -33.5210     0.7830 h1         1 VQN       0.034200
     88 H29         12.4190   -33.4370     1.5710 h1         1 VQN       0.034200
     89 H30         11.3560   -32.3050     3.5320 hc         1 VQN       0.048700
     90 H31         10.0750   -34.9750     2.7230 hc         1 VQN       0.055700
     91 H32         11.6200   -34.7750     3.5430 hc         1 VQN       0.055700
     92 H33          9.7830   -35.3730     5.1280 h1         1 VQN       0.061950
     93 H34         10.5160   -33.8090     5.5330 h1         1 VQN       0.061950
     94 H35          6.0670   -33.8410     3.8170 ha         1 VQN       0.144000
     95 H36          1.2090   -35.6310     5.4130 h1         1 VQN       0.103700
     96 H37          1.1990   -33.2060     6.5100 hc         1 VQN       0.066700
     97 H38         -0.2680   -34.1550     6.3510 hc         1 VQN       0.066700
     98 H39          1.4290   -33.9130     8.8660 hc         1 VQN       0.085200
     99 H40         -0.1930   -33.2390     8.6890 hc         1 VQN       0.085200
    100 H41         -0.0420   -37.3900     8.7020 hn         1 VQN       0.331500
    101 H42          6.5470   -35.1470     8.6410 ha         1 VQN       0.155000
    102 H43          9.1510   -31.6290     4.8340 h1         1 VQN       0.061950
    103 H44          7.6010   -31.8760     4.0150 h1         1 VQN       0.061950
    104 H45          9.3930   -31.2280     2.4090 hc         1 VQN       0.055700
    105 H46          8.7150   -32.8040     2.0260 hc         1 VQN       0.055700
    106 H47         11.0840   -31.7550    -1.2140 h1         1 VQN       0.047700
    107 H48         12.5520   -32.6510    -0.8260 h1         1 VQN       0.047700
    108 H49         12.3680   -29.6090    -1.0610 h1         1 VQN       0.055450
    109 H50         13.0660   -30.7280    -2.2580 h1         1 VQN       0.055450
    110 H51         13.8230   -27.2170    -4.7950 hc         1 VQN       0.056700
    111 H52         14.8850   -26.2850    -3.7700 hc         1 VQN       0.056700
    112 H53         12.7850   -25.5960    -2.4220 hc         1 VQN       0.110700
    113 H54         13.7910   -24.1960    -4.6190 hc         1 VQN       0.060200
    114 H55         12.2460   -23.7360    -3.9000 hc         1 VQN       0.060200
    115 H56         11.5410   -24.2070    -6.1860 h1         1 VQN       0.040700
    116 H57         12.6660   -25.5800    -6.3410 h1         1 VQN       0.040700
    117 H58         10.1290   -26.1910    -5.4170 hn         1 VQN       0.322500
    118 O18         16.4080   -26.7620    -1.7200 o          1 VQN      -0.601100
    119 C02         16.5050   -24.8400     2.2210 c3         1 VQN      -0.061700
    120 H8          14.4830   -31.8650     1.1390 h1         1 VQN       0.055450
    121 H13         17.3450   -25.5240     2.4020 hc         1 VQN       0.046700
@<TRIPOS>BOND
     1     1    16 1   
     2     1    17 1   
     3     1    63 1   
     4     1    64 1   
     5     2    18 ar  
     6     2    19 ar  
     7     2    65 1   
     8     3    19 ar  
     9     3    20 ar  
    10     3    66 1   
    11     4    12 1   
    12     4    21 1   
    13     4   118 2   
    14     5     6 1   
    15     5    21 1   
    16     5    56 1   
    17     5    67 1   
    18     6     7 2   
    19     6    68 1   
    20     7    22 1   
    21     7    69 1   
    22     8    24 1   
    23     8    25 1   
    24     8    70 1   
    25     8   120 1   
    26     9    71 1   
    27     9    72 1   
    28     9    73 1   
    29     9   119 1   
    30    10    74 1   
    31    10    75 1   
    32    10    76 1   
    33    10   119 1   
    34    11    12 1   
    35    11    77 1   
    36    11    78 1   
    37    11   119 1   
    38    12    13 1   
    39    12    79 1   
    40    13    14 1   
    41    13    80 1   
    42    14    15 2   
    43    14    16 1   
    44    17    18 ar  
    45    17    20 ar  
    46    18    81 1   
    47    19    82 1   
    48    20    83 1   
    49    21    84 1   
    50    22    23 2   
    51    22    24 1   
    52    24    55 1   
    53    25    26 1   
    54    25    85 1   
    55    25    86 1   
    56    26    27 1   
    57    26    54 1   
    58    27    28 1   
    59    27    87 1   
    60    27    88 1   
    61    28    29 1   
    62    28    53 1   
    63    28    89 1   
    64    29    30 1   
    65    29    90 1   
    66    29    91 1   
    67    30    31 1   
    68    30    92 1   
    69    30    93 1   
    70    31    32 1   
    71    31    52 1   
    72    32    33 ar  
    73    32    50 ar  
    74    33    34 ar  
    75    33    94 1   
    76    34    35 1   
    77    34    48 ar  
    78    35    36 2   
    79    35    37 1   
    80    37    38 1   
    81    37    46 1   
    82    38    39 1   
    83    38    44 1   
    84    38    95 1   
    85    39    40 1   
    86    39    96 1   
    87    39    97 1   
    88    40    41 1   
    89    40    98 1   
    90    40    99 1   
    91    41    42 2   
    92    41    43 1   
    93    43    44 1   
    94    43   100 1   
    95    44    45 2   
    96    46    47 2   
    97    46    48 1   
    98    48    49 ar  
    99    49    50 ar  
   100    49   101 1   
   101    50    51 1   
   102    52    53 1   
   103    52   102 1   
   104    52   103 1   
   105    53   104 1   
   106    53   105 1   
   107    54    55 1   
   108    54   106 1   
   109    54   107 1   
   110    55   108 1   
   111    55   109 1   
   112    56    57 1   
   113    56   110 1   
   114    56   111 1   
   115    57    58 1   
   116    57    61 1   
   117    57   112 1   
   118    58    59 1   
   119    58   113 1   
   120    58   114 1   
   121    59    60 1   
   122    59   115 1   
   123    59   116 1   
   124    60    61 1   
   125    60   117 1   
   126    61    62 2   
   127   119   121 1   
@<TRIPOS>SUBSTRUCTURE
     1 VQN         1 TEMP              0 ****  ****    0 ROOT
