@<TRIPOS>MOLECULE
VQO
    5     4     1     0     0
SMALL
abcg2


@<TRIPOS>ATOM
      1 N          -18.9850     5.0570    11.4810 n2         1 VQO      -0.811400
      2 C          -18.8400     5.7530    10.3780 c2         1 VQO       0.504100
      3 O          -18.8580     7.0060    10.1950 o          1 VQO      -0.899300
      4 HN1        -19.1270     5.7180    12.2520 hn         1 VQO       0.298400
      5 H2         -18.6800     5.1190     9.4790 h5         1 VQO      -0.091800
@<TRIPOS>BOND
     1     1     2 2   
     2     1     4 1   
     3     2     3 1   
     4     2     5 1   
@<TRIPOS>SUBSTRUCTURE
     1 VQO         1 TEMP              0 ****  ****    0 ROOT
