@<TRIPOS>MOLECULE
VQO
    5     4     1     0     0
SMALL
No Charge or Current Charge


@<TRIPOS>ATOM
      1 N          -18.9840     5.0860    11.4670 n2         1 VQO      -0.811400
      2 C          -18.8390     5.7100    10.3750 c2         1 VQO       0.504100
      3 O          -18.8680     6.9250    10.2800 o          1 VQO      -0.899300
      4 HN1        -19.1230     5.7830    12.2080 hn         1 VQO       0.298400
      5 H2         -18.6770     5.1490     9.4550 h5         1 VQO      -0.091800
@<TRIPOS>BOND
     1     1     2 2   
     2     1     4 1   
     3     2     3 1   
     4     2     5 1   
@<TRIPOS>SUBSTRUCTURE
     1 VQO         1 TEMP              0 ****  ****    0 ROOT
