@<TRIPOS>MOLECULE
VQP
   59    61     1     0     0
SMALL
abcg2


@<TRIPOS>ATOM
      1 C4           8.7880   -33.2030   -33.2360 ca         1 VQP       0.117000
      2 C5           9.6510   -33.1190   -34.3210 ca         1 VQP      -0.034000
      3 C6          10.9690   -33.5100   -34.1130 ca         1 VQP      -0.123000
      4 C7          11.4090   -33.9490   -32.8680 ca         1 VQP       0.273000
      5 C10         12.2690   -36.6750   -32.3130 ca         1 VQP      -0.106000
      6 C13         14.9500   -37.0920   -31.6770 ca         1 VQP      -0.208600
      7 C26          8.8030   -33.2090   -39.1340 c3         1 VQP       0.114000
      8 C28          7.4290   -34.6850   -40.7710 c3         1 VQP      -0.041000
      9 C11         12.6950   -37.9260   -31.9310 ca         1 VQP      -0.088000
     10 C12         14.0330   -38.1580   -31.6060 ca         1 VQP       0.167400
     11 C14         14.4810   -35.8340   -32.0500 ca         1 VQP       0.181000
     12 C16         16.3510   -37.3370   -31.3370 c          1 VQP       0.575600
     13 C19         15.6490   -39.6040   -30.9440 cc         1 VQP       0.500800
     14 C2          10.5340   -33.9740   -31.7720 ca         1 VQP      -0.068300
     15 C23          9.3940   -33.2740   -36.7510 c          1 VQP       0.658100
     16 C27          7.5600   -34.0610   -39.3720 c3         1 VQP      -0.098400
     17 C29          7.3790   -33.6010   -41.8490 c3         1 VQP      -0.085433
     18 C3           9.2120   -33.6030   -31.9880 ca         1 VQP      -0.124000
     19 C30          8.5960   -35.6330   -41.0550 c3         1 VQP      -0.085433
     20 C31          6.1230   -35.4800   -40.8140 c3         1 VQP      -0.085433
     21 C9          13.1520   -35.5870   -32.3680 ca         1 VQP       0.246000
     22 F32          7.5000   -32.8560   -33.4080 f          1 VQP      -0.184000
     23 N18         16.6180   -38.6470   -30.9740 n          1 VQP      -0.339300
     24 N20         14.4160   -39.4220   -31.2330 nd         1 VQP      -0.619100
     25 N22          9.1900   -32.6340   -35.5470 ns         1 VQP      -0.174000
     26 N25          8.8380   -32.6360   -37.8060 ns         1 VQP      -0.518900
     27 N8          12.7580   -34.3020   -32.7020 nu         1 VQP      -0.969000
     28 O17         17.2440   -36.5110   -31.3510 o          1 VQP      -0.516000
     29 O24         10.0430   -34.3050   -36.8460 o          1 VQP      -0.621100
     30 H1          11.6730   -33.4640   -34.9330 ha         1 VQP       0.140000
     31 H2          11.2300   -36.5290   -32.5790 ha         1 VQP       0.134000
     32 H3          18.0260   -40.0370   -30.3440 h1         1 VQP       0.053700
     33 H4          18.6580   -38.8160   -31.4550 h1         1 VQP       0.053700
     34 H5          18.3210   -38.3920   -29.7680 h1         1 VQP       0.053700
     35 H6           9.7120   -33.7910   -39.2780 h1         1 VQP       0.060200
     36 H7           8.8450   -32.3810   -39.8430 h1         1 VQP       0.060200
     37 H8          11.9830   -33.9450   -30.1850 hc         1 VQP       0.050033
     38 H9          10.3030   -33.9760   -29.6440 hc         1 VQP       0.050033
     39 H10         11.0580   -35.4340   -30.2690 hc         1 VQP       0.050033
     40 H11         11.9960   -38.7510   -31.8890 ha         1 VQP       0.138000
     41 H12         15.9850   -40.5900   -30.6460 h5         1 VQP       0.046800
     42 H13          6.6760   -33.4430   -39.1810 hc         1 VQP       0.045200
     43 H14          7.5410   -34.8650   -38.6280 hc         1 VQP       0.045200
     44 H15          8.3120   -33.0400   -41.9140 hc         1 VQP       0.034144
     45 H16          7.2010   -34.0440   -42.8320 hc         1 VQP       0.034144
     46 H17          6.5730   -32.8880   -41.6570 hc         1 VQP       0.034144
     47 H18          8.5040   -33.6150   -31.1680 ha         1 VQP       0.133000
     48 H19          8.6790   -36.4040   -40.2850 hc         1 VQP       0.034144
     49 H20          8.4570   -36.1370   -42.0140 hc         1 VQP       0.034144
     50 H21          9.5510   -35.1070   -41.1030 hc         1 VQP       0.034144
     51 H22          6.1150   -36.2740   -40.0640 hc         1 VQP       0.034144
     52 H23          5.2620   -34.8350   -40.6260 hc         1 VQP       0.034144
     53 H24          5.9820   -35.9460   -41.7910 hc         1 VQP       0.034144
     54 H25          8.4970   -31.9020   -35.5090 hn         1 VQP       0.154000
     55 H26          8.2490   -31.8340   -37.6440 hn         1 VQP       0.306500
     56 H27         13.4090   -33.7830   -33.2710 hn         1 VQP       0.494000
     57 C1          10.9940   -34.3520   -30.3970 c3         1 VQP      -0.046800
     58 F15         15.3190   -34.7950   -32.1210 f          1 VQP      -0.156000
     59 C21         17.9870   -38.9860   -30.6160 c3         1 VQP       0.083300
@<TRIPOS>BOND
     1     1     2 ar  
     2     1    18 ar  
     3     1    22 1   
     4     2     3 ar  
     5     2    25 1   
     6     3     4 ar  
     7     3    30 1   
     8     4    14 ar  
     9     4    27 1   
    10     5     9 ar  
    11     5    21 ar  
    12     5    31 1   
    13     6    10 ar  
    14     6    11 ar  
    15     6    12 1   
    16     7    16 1   
    17     7    26 1   
    18     7    35 1   
    19     7    36 1   
    20     8    16 1   
    21     8    17 1   
    22     8    19 1   
    23     8    20 1   
    24     9    10 ar  
    25     9    40 1   
    26    10    24 1   
    27    11    21 ar  
    28    11    58 1   
    29    12    23 1   
    30    12    28 2   
    31    13    23 1   
    32    13    24 2   
    33    13    41 1   
    34    14    18 ar  
    35    14    57 1   
    36    15    25 1   
    37    15    26 1   
    38    15    29 2   
    39    16    42 1   
    40    16    43 1   
    41    17    44 1   
    42    17    45 1   
    43    17    46 1   
    44    18    47 1   
    45    19    48 1   
    46    19    49 1   
    47    19    50 1   
    48    20    51 1   
    49    20    52 1   
    50    20    53 1   
    51    21    27 1   
    52    23    59 1   
    53    25    54 1   
    54    26    55 1   
    55    27    56 1   
    56    32    59 1   
    57    33    59 1   
    58    34    59 1   
    59    37    57 1   
    60    38    57 1   
    61    39    57 1   
@<TRIPOS>SUBSTRUCTURE
     1 VQP         1 TEMP              0 ****  ****    0 ROOT
