@<TRIPOS>MOLECULE
VQP
   59    61     1     0     0
SMALL
No Charge or Current Charge


@<TRIPOS>ATOM
      1 C4           8.8750   -32.7390   -33.0320 ca         1 VQP       0.117000
      2 C5           9.4450   -33.1850   -34.2400 ca         1 VQP      -0.034000
      3 C6          10.6780   -33.8730   -34.1900 ca         1 VQP      -0.123000
      4 C7          11.3270   -34.1140   -32.9660 ca         1 VQP       0.273000
      5 C10         12.1270   -36.7570   -31.5940 ca         1 VQP      -0.106000
      6 C13         14.8680   -37.4340   -31.6320 ca         1 VQP      -0.208600
      7 C26          8.0760   -32.9020   -39.0870 c3         1 VQP       0.114000
      8 C28          7.6990   -34.6070   -41.0680 c3         1 VQP      -0.041000
      9 C11         12.5960   -37.8860   -30.9050 ca         1 VQP      -0.088000
     10 C12         13.9590   -38.2320   -30.9130 ca         1 VQP       0.167400
     11 C14         14.3940   -36.2930   -32.3290 ca         1 VQP       0.181000
     12 C16         16.3050   -37.8290   -31.6300 c          1 VQP       0.575600
     13 C19         15.6180   -39.6770   -30.2260 cc         1 VQP       0.500800
     14 C2          10.7560   -33.6320   -31.7580 ca         1 VQP      -0.068300
     15 C23          9.0490   -33.1600   -36.7810 c          1 VQP       0.658100
     16 C27          7.7110   -34.3400   -39.5290 c3         1 VQP      -0.098400
     17 C29          6.6540   -33.7040   -41.7770 c3         1 VQP      -0.085433
     18 C3           9.5230   -32.9540   -31.8070 ca         1 VQP      -0.124000
     19 C30          9.1020   -34.3540   -41.6820 c3         1 VQP      -0.085433
     20 C31          7.3140   -36.0910   -41.3060 c3         1 VQP      -0.085433
     21 C9          13.0200   -35.9390   -32.3030 ca         1 VQP       0.246000
     22 F32          7.6930   -32.0820   -33.0430 f          1 VQP      -0.184000
     23 N18         16.6060   -38.9730   -30.8960 n          1 VQP      -0.339300
     24 N20         14.3190   -39.3760   -30.1920 nd         1 VQP      -0.619100
     25 N22          8.7380   -32.9280   -35.4510 ns         1 VQP      -0.174000
     26 N25          8.0450   -32.7550   -37.6300 ns         1 VQP      -0.518900
     27 N8          12.5420   -34.8120   -33.0010 nu         1 VQP      -0.969000
     28 O17         17.1760   -37.2060   -32.2230 o          1 VQP      -0.516000
     29 O24         10.0890   -33.6580   -37.1870 o          1 VQP      -0.621100
     30 H1          11.1420   -34.2490   -35.0940 ha         1 VQP       0.140000
     31 H2          11.0660   -36.5260   -31.5820 ha         1 VQP       0.134000
     32 H3          18.1040   -40.3390   -30.2320 h1         1 VQP       0.053700
     33 H4          18.3700   -39.6530   -31.8570 h1         1 VQP       0.053700
     34 H5          18.6430   -38.6470   -30.4030 h1         1 VQP       0.053700
     35 H6           9.0800   -32.6380   -39.4470 h1         1 VQP       0.060200
     36 H7           7.3640   -32.1860   -39.5170 h1         1 VQP       0.060200
     37 H8          12.5380   -33.7740   -30.4910 hc         1 VQP       0.050033
     38 H9          11.1810   -32.9520   -29.7310 hc         1 VQP       0.050033
     39 H10         11.1490   -34.7090   -29.9030 hc         1 VQP       0.050033
     40 H11         11.8900   -38.5060   -30.3570 ha         1 VQP       0.138000
     41 H12         15.9760   -40.5480   -29.6920 h5         1 VQP       0.046800
     42 H13          6.7220   -34.5820   -39.1190 hc         1 VQP       0.045200
     43 H14          8.4150   -35.0360   -39.0560 hc         1 VQP       0.045200
     44 H15          6.9270   -32.6440   -41.7090 hc         1 VQP       0.034144
     45 H16          6.5810   -33.9560   -42.8420 hc         1 VQP       0.034144
     46 H17          5.6600   -33.8300   -41.3320 hc         1 VQP       0.034144
     47 H18          9.0660   -32.5810   -30.8940 ha         1 VQP       0.133000
     48 H19          9.8680   -34.9480   -41.1680 hc         1 VQP       0.034144
     49 H20          9.1190   -34.6290   -42.7440 hc         1 VQP       0.034144
     50 H21          9.3870   -33.2970   -41.6120 hc         1 VQP       0.034144
     51 H22          8.0350   -36.7660   -40.8270 hc         1 VQP       0.034144
     52 H23          6.3210   -36.3100   -40.8940 hc         1 VQP       0.034144
     53 H24          7.2930   -36.3260   -42.3770 hc         1 VQP       0.034144
     54 H25          7.8380   -32.4920   -35.3060 hn         1 VQP       0.154000
     55 H26          7.2200   -32.3470   -37.2060 hn         1 VQP       0.306500
     56 H27         13.1710   -34.5020   -33.7450 hn         1 VQP       0.494000
     57 C1          11.4450   -33.7790   -30.4000 c3         1 VQP      -0.046800
     58 F15         15.2460   -35.5090   -33.0360 f          1 VQP      -0.156000
     59 C21         18.0130   -39.4320   -30.8430 c3         1 VQP       0.083300
@<TRIPOS>BOND
     1     1     2 ar  
     2     1    18 ar  
     3     1    22 1   
     4     2     3 ar  
     5     2    25 1   
     6     3     4 ar  
     7     3    30 1   
     8     4    14 ar  
     9     4    27 1   
    10     5     9 ar  
    11     5    21 ar  
    12     5    31 1   
    13     6    10 ar  
    14     6    11 ar  
    15     6    12 1   
    16     7    16 1   
    17     7    26 1   
    18     7    35 1   
    19     7    36 1   
    20     8    16 1   
    21     8    17 1   
    22     8    19 1   
    23     8    20 1   
    24     9    10 ar  
    25     9    40 1   
    26    10    24 1   
    27    11    21 ar  
    28    11    58 1   
    29    12    23 1   
    30    12    28 2   
    31    13    23 1   
    32    13    24 2   
    33    13    41 1   
    34    14    18 ar  
    35    14    57 1   
    36    15    25 1   
    37    15    26 1   
    38    15    29 2   
    39    16    42 1   
    40    16    43 1   
    41    17    44 1   
    42    17    45 1   
    43    17    46 1   
    44    18    47 1   
    45    19    48 1   
    46    19    49 1   
    47    19    50 1   
    48    20    51 1   
    49    20    52 1   
    50    20    53 1   
    51    21    27 1   
    52    23    59 1   
    53    25    54 1   
    54    26    55 1   
    55    27    56 1   
    56    32    59 1   
    57    33    59 1   
    58    34    59 1   
    59    37    57 1   
    60    38    57 1   
    61    39    57 1   
@<TRIPOS>SUBSTRUCTURE
     1 VQP         1 TEMP              0 ****  ****    0 ROOT
