@<TRIPOS>MOLECULE
VQQ
   24    24     1     0     0
SMALL
No Charge or Current Charge


@<TRIPOS>ATOM
      1 C7          -2.4980    14.0770   -35.7840 c3         1 VQQ      -0.023100
      2 C8          -2.8820    15.2650   -34.8760 c3         1 VQQ       0.152800
      3 C1          -1.3590    15.1480   -37.8160 ca         1 VQQ       0.139100
      4 C5          -0.0070    13.8790   -36.2280 ca         1 VQQ      -0.067000
      5 C6          -1.2630    14.3760   -36.6340 ca         1 VQQ      -0.099300
      6 C4           1.1420    14.1440   -36.9890 ca         1 VQQ       0.090000
      7 C3           1.0500    14.9080   -38.1620 ca         1 VQQ      -0.066000
      8 C2          -0.1960    15.4100   -38.5770 ca         1 VQQ      -0.188000
      9 Cl           2.7020    13.5180   -36.4700 cl         1 VQQ      -0.215000
     10 C           -2.7930    16.4260   -39.3760 c3         1 VQQ       0.147900
     11 N           -4.0520    14.9580   -34.0250 n8         1 VQQ      -1.004200
     12 H1          -3.3480    13.8220   -36.4280 hc         1 VQQ       0.059200
     13 H2          -2.3200    13.1940   -35.1570 hc         1 VQQ       0.059200
     14 H3          -2.0320    15.5160   -34.2270 h1         1 VQQ       0.033200
     15 H4          -3.1150    16.1430   -35.4950 h1         1 VQQ       0.033200
     16 H5           0.0810    13.2880   -35.3200 ha         1 VQQ       0.133000
     17 H6           1.9430    15.1100   -38.7480 ha         1 VQQ       0.129000
     18 H7          -0.2370    15.9990   -39.4890 ha         1 VQQ       0.121000
     19 H8          -3.8500    16.6980   -39.4820 h1         1 VQQ       0.043033
     20 H9          -2.2080    17.3530   -39.3220 h1         1 VQQ       0.043033
     21 H10         -2.4940    15.8710   -40.2750 h1         1 VQQ       0.043033
     22 H11         -4.2950    15.7940   -33.4780 hn         1 VQQ       0.393000
     23 H12         -4.8740    14.8190   -34.6250 hn         1 VQQ       0.393000
     24 O           -2.5990    15.6290   -38.1940 os         1 VQQ      -0.350100
@<TRIPOS>BOND
     1     1     2 1   
     2     1     5 1   
     3     1    12 1   
     4     1    13 1   
     5     2    11 1   
     6     2    14 1   
     7     2    15 1   
     8     3     5 ar  
     9     3     8 ar  
    10     3    24 1   
    11     4     5 ar  
    12     4     6 ar  
    13     4    16 1   
    14     6     7 ar  
    15     6     9 1   
    16     7     8 ar  
    17     7    17 1   
    18     8    18 1   
    19    10    19 1   
    20    10    20 1   
    21    10    21 1   
    22    10    24 1   
    23    11    22 1   
    24    11    23 1   
@<TRIPOS>SUBSTRUCTURE
     1 VQQ         1 TEMP              0 ****  ****    0 ROOT
