@<TRIPOS>MOLECULE
VQQ
   24    24     1     0     0
SMALL
abcg2


@<TRIPOS>ATOM
      1 C7          -2.5020    14.0980   -35.8060 c3         1 VQQ      -0.023100
      2 C8          -2.8520    15.2700   -34.8840 c3         1 VQQ       0.152800
      3 C1          -1.3670    15.1460   -37.8160 ca         1 VQQ       0.139100
      4 C5          -0.0360    13.9010   -36.2490 ca         1 VQQ      -0.067000
      5 C6          -1.2820    14.3740   -36.6410 ca         1 VQQ      -0.099300
      6 C4           1.0970    14.1800   -37.0040 ca         1 VQQ       0.090000
      7 C3           1.0160    14.9340   -38.1590 ca         1 VQQ      -0.066000
      8 C2          -0.2250    15.4170   -38.5670 ca         1 VQQ      -0.188000
      9 CL           2.6550    13.5630   -36.4750 cl         1 VQQ      -0.215000
     10 C           -2.7600    16.3690   -39.3330 c3         1 VQQ       0.147900
     11 N           -4.0650    14.9700   -34.1140 n8         1 VQQ      -1.004200
     12 H1          -3.3570    13.8960   -36.4550 hc         1 VQQ       0.059200
     13 H2          -2.3330    13.2090   -35.1960 hc         1 VQQ       0.059200
     14 H3          -2.0310    15.4270   -34.1800 h1         1 VQQ       0.033200
     15 H4          -2.9390    16.1830   -35.4860 h1         1 VQQ       0.033200
     16 H5           0.0470    13.3100   -35.3460 ha         1 VQQ       0.133000
     17 H6           1.9000    15.1470   -38.7430 ha         1 VQQ       0.129000
     18 H7          -0.2830    16.0050   -39.4700 ha         1 VQQ       0.121000
     19 H8          -3.8190    16.6040   -39.4010 h1         1 VQQ       0.043033
     20 H9          -2.1830    17.2950   -39.2650 h1         1 VQQ       0.043033
     21 H10         -2.4490    15.8100   -40.2180 h1         1 VQQ       0.043033
     22 H11         -4.2630    15.7340   -33.4760 hn         1 VQQ       0.393000
     23 H12         -4.8600    14.9190   -34.7440 hn         1 VQQ       0.393000
     24 O           -2.6100    15.5850   -38.1510 os         1 VQQ      -0.350100
@<TRIPOS>BOND
     1     1     2 1   
     2     1     5 1   
     3     1    12 1   
     4     1    13 1   
     5     2    11 1   
     6     2    14 1   
     7     2    15 1   
     8     3     5 ar  
     9     3     8 ar  
    10     3    24 1   
    11     4     5 ar  
    12     4     6 ar  
    13     4    16 1   
    14     6     7 ar  
    15     6     9 1   
    16     7     8 ar  
    17     7    17 1   
    18     8    18 1   
    19    10    19 1   
    20    10    20 1   
    21    10    21 1   
    22    10    24 1   
    23    11    22 1   
    24    11    23 1   
@<TRIPOS>SUBSTRUCTURE
     1 VQQ         1 TEMP              0 ****  ****    0 ROOT
