@<TRIPOS>MOLECULE
VQR
   68    69     1     0     0
SMALL
abcg2


@<TRIPOS>ATOM
      1 C1          11.3680   -32.3270     0.0010 c3         1 VQR       0.160900
      2 C10         10.2680   -26.9490    -3.1000 c          1 VQR       0.572000
      3 C11         15.1620   -27.7630     0.5300 c          1 VQR       0.607100
      4 C12         16.1740   -27.0420    -0.3820 c3         1 VQR       0.062700
      5 C13         17.5380   -26.8320     0.2900 c3         1 VQR      -0.085400
      6 C14         18.5830   -27.9120    -0.0230 c3         1 VQR      -0.060700
      7 C15         19.0320   -27.8650    -1.4810 c3         1 VQR      -0.089600
      8 C16         18.1390   -29.3220     0.3560 c3         1 VQR      -0.089600
      9 C18         13.7610   -22.8800    -0.2570 c3         1 VQR       0.230900
     10 C19         12.3300   -23.3250    -0.3650 ca         1 VQR      -0.139300
     11 C2          11.8220   -31.0200    -1.9740 c          1 VQR       0.603100
     12 C20         11.6010   -23.0500    -1.5200 ca         1 VQR      -0.088000
     13 C21         10.2930   -23.4910    -1.6530 ca         1 VQR      -0.118000
     14 C22          9.6970   -24.2150    -0.6290 ca         1 VQR      -0.089000
     15 C23         10.4130   -24.4880     0.5290 ca         1 VQR      -0.118000
     16 C24         11.7230   -24.0460     0.6600 ca         1 VQR      -0.088000
     17 C3          13.1750   -30.6890    -1.3940 c3         1 VQR      -0.186400
     18 C4          13.8850   -29.5020    -2.0370 c3         1 VQR      -0.085400
     19 C5          13.5840   -28.1270    -1.4170 c3         1 VQR       0.120700
     20 C6          12.1350   -27.6540    -1.5370 c3         1 VQR      -0.069400
     21 C7          11.7370   -27.3190    -2.9640 c5         1 VQR      -0.154700
     22 C8          12.4600   -26.1150    -3.5680 c5         1 VQR      -0.097400
     23 C9          11.4490   -25.5280    -4.5560 c5         1 VQR       0.105000
     24 N1          10.1840   -25.9590    -4.0030 ns         1 VQR      -0.517900
     25 N2          13.9730   -28.0920    -0.0160 ns         1 VQR      -0.510900
     26 N3          15.6000   -25.8210    -0.9140 ns         1 VQR      -0.508900
     27 O1          11.0120   -31.8180    -1.2800 os         1 VQR      -0.439100
     28 O2          11.4440   -30.6480    -3.0560 o          1 VQR      -0.439000
     29 O4          15.4160   -28.0300     1.6920 o          1 VQR      -0.580100
     30 O5          14.8380   -24.9990     1.0540 o          1 VQR      -0.521000
     31 O6          14.6350   -23.8350    -0.8720 os         1 VQR      -0.467100
     32 H1          10.5550   -32.9830     0.3000 h1         1 VQR       0.044367
     33 H2          12.2910   -32.9070    -0.0320 h1         1 VQR       0.044367
     34 H3          11.4660   -31.5320     0.7400 h1         1 VQR       0.044367
     35 H4          16.3150   -27.6810    -1.2590 h1         1 VQR       0.058700
     36 H5          17.9360   -25.8750    -0.0550 hc         1 VQR       0.067200
     37 H6          17.4110   -26.7450     1.3690 hc         1 VQR       0.067200
     38 H7          19.4570   -27.6680     0.5900 hc         1 VQR       0.052700
     39 H8          19.8480   -28.5680    -1.6560 hc         1 VQR       0.032533
     40 H9          18.2270   -28.1370    -2.1690 hc         1 VQR       0.032533
     41 H10         19.3840   -26.8700    -1.7590 hc         1 VQR       0.032533
     42 H11         17.8580   -29.3920     1.4060 hc         1 VQR       0.032533
     43 H12         17.2850   -29.6530    -0.2410 hc         1 VQR       0.032533
     44 H13         18.9460   -30.0340     0.1780 hc         1 VQR       0.032533
     45 H14         14.0480   -22.7040     0.7800 h1         1 VQR       0.069700
     46 H15         13.9210   -21.9570    -0.8140 h1         1 VQR       0.069700
     47 H16         12.0610   -22.4850    -2.3220 ha         1 VQR       0.120500
     48 H17          9.7390   -23.2700    -2.5560 ha         1 VQR       0.114500
     49 H18          8.6770   -24.5610    -0.7320 ha         1 VQR       0.121000
     50 H19          9.9500   -25.0460     1.3330 ha         1 VQR       0.114500
     51 H20         12.2740   -24.2600     1.5660 ha         1 VQR       0.120500
     52 H21         13.7850   -31.5900    -1.5310 hc         1 VQR       0.065200
     53 H22         13.1190   -30.5660    -0.3110 hc         1 VQR       0.065200
     54 H23         13.6900   -29.4750    -3.1100 hc         1 VQR       0.056700
     55 H24         14.9620   -29.6620    -1.9380 hc         1 VQR       0.056700
     56 H25         14.2030   -27.4080    -1.9500 h1         1 VQR       0.058700
     57 H26         12.0250   -26.7550    -0.9230 hc         1 VQR       0.066200
     58 H27         11.4530   -28.3980    -1.1160 hc         1 VQR       0.066200
     59 H28         11.8800   -28.1970    -3.6030 hc         1 VQR       0.093700
     60 H29         13.4010   -26.3730    -4.0520 hc         1 VQR       0.057200
     61 H30         12.6760   -25.3840    -2.7850 hc         1 VQR       0.057200
     62 H31         11.5030   -24.4410    -4.6090 h1         1 VQR       0.041700
     63 H32         11.5930   -25.9220    -5.5670 h1         1 VQR       0.041700
     64 H33          9.2990   -25.5970    -4.3220 hn         1 VQR       0.326500
     65 H34         13.3360   -28.5350     0.6320 hn         1 VQR       0.308500
     66 H35         15.7540   -25.6150    -1.8890 hn         1 VQR       0.326500
     67 O3           9.3330   -27.4720    -2.5150 o          1 VQR      -0.550000
     68 C17         15.0110   -24.8920    -0.1410 c          1 VQR       0.636100
@<TRIPOS>BOND
     1     1    27 1   
     2     1    32 1   
     3     1    33 1   
     4     1    34 1   
     5     2    21 1   
     6     2    24 1   
     7     2    67 2   
     8     3     4 1   
     9     3    25 1   
    10     3    29 2   
    11     4     5 1   
    12     4    26 1   
    13     4    35 1   
    14     5     6 1   
    15     5    36 1   
    16     5    37 1   
    17     6     7 1   
    18     6     8 1   
    19     6    38 1   
    20     7    39 1   
    21     7    40 1   
    22     7    41 1   
    23     8    42 1   
    24     8    43 1   
    25     8    44 1   
    26     9    10 1   
    27     9    31 1   
    28     9    45 1   
    29     9    46 1   
    30    10    12 ar  
    31    10    16 ar  
    32    11    17 1   
    33    11    27 1   
    34    11    28 2   
    35    12    13 ar  
    36    12    47 1   
    37    13    14 ar  
    38    13    48 1   
    39    14    15 ar  
    40    14    49 1   
    41    15    16 ar  
    42    15    50 1   
    43    16    51 1   
    44    17    18 1   
    45    17    52 1   
    46    17    53 1   
    47    18    19 1   
    48    18    54 1   
    49    18    55 1   
    50    19    20 1   
    51    19    25 1   
    52    19    56 1   
    53    20    21 1   
    54    20    57 1   
    55    20    58 1   
    56    21    22 1   
    57    21    59 1   
    58    22    23 1   
    59    22    60 1   
    60    22    61 1   
    61    23    24 1   
    62    23    62 1   
    63    23    63 1   
    64    24    64 1   
    65    25    65 1   
    66    26    66 1   
    67    26    68 1   
    68    30    68 2   
    69    31    68 1   
@<TRIPOS>SUBSTRUCTURE
     1 VQR         1 TEMP              0 ****  ****    0 ROOT
