@<TRIPOS>MOLECULE
VQR
   68    69     1     0     0
SMALL
No Charge or Current Charge


@<TRIPOS>ATOM
      1 C1          11.8590   -32.4810     0.1120 c3         1 VQR       0.160900
      2 C10         10.0400   -26.7600    -3.3070 c          1 VQR       0.572000
      3 C11         15.0650   -27.8890     0.3790 c          1 VQR       0.607100
      4 C12         16.1810   -27.0890    -0.3980 c3         1 VQR       0.062700
      5 C13         17.5270   -26.9250     0.3750 c3         1 VQR      -0.085400
      6 C14         18.5850   -28.0490     0.1610 c3         1 VQR      -0.060700
      7 C15         19.1290   -28.0860    -1.2880 c3         1 VQR      -0.089600
      8 C16         18.1110   -29.4470     0.6170 c3         1 VQR      -0.089600
      9 C18         13.8390   -22.7950    -0.2440 c3         1 VQR       0.230900
     10 C19         12.4090   -23.3320    -0.2680 ca         1 VQR      -0.139300
     11 C2          11.7820   -30.9610    -1.8360 c          1 VQR       0.603100
     12 C20         11.6310   -23.2060    -1.4360 ca         1 VQR      -0.088000
     13 C21         10.3200   -23.7110    -1.4740 ca         1 VQR      -0.118000
     14 C22          9.7780   -24.3470    -0.3460 ca         1 VQR      -0.089000
     15 C23         10.5460   -24.4720     0.8240 ca         1 VQR      -0.118000
     16 C24         11.8560   -23.9640     0.8650 ca         1 VQR      -0.088000
     17 C3          13.2440   -30.5640    -1.4990 c3         1 VQR      -0.186400
     18 C4          13.8070   -29.2890    -2.1990 c3         1 VQR      -0.085400
     19 C5          13.4280   -27.9220    -1.5560 c3         1 VQR       0.120700
     20 C6          11.9510   -27.4880    -1.7270 c3         1 VQR      -0.069400
     21 C7          11.5040   -27.2020    -3.1880 c5         1 VQR      -0.154700
     22 C8          12.2770   -26.0570    -3.9010 c5         1 VQR      -0.097400
     23 C9          11.2740   -25.6420    -5.0110 c5         1 VQR       0.105000
     24 N1          10.0040   -25.8390    -4.3180 ns         1 VQR      -0.517900
     25 N2          13.7810   -27.8970    -0.1320 ns         1 VQR      -0.510900
     26 N3          15.6820   -25.7700    -0.8530 ns         1 VQR      -0.508900
     27 O1          11.1650   -31.8630    -0.9910 os         1 VQR      -0.439100
     28 O2          11.2000   -30.5350    -2.8200 o          1 VQR      -0.439000
     29 O4          15.2420   -28.3870     1.4810 o          1 VQR      -0.580100
     30 O5          14.9400   -24.9370     1.1550 o          1 VQR      -0.521000
     31 O6          14.7090   -23.7830    -0.8250 os         1 VQR      -0.467100
     32 H1          11.2130   -33.2280     0.5900 h1         1 VQR       0.044367
     33 H2          12.7680   -32.9950    -0.2270 h1         1 VQR       0.044367
     34 H3          12.1280   -31.7420     0.8770 h1         1 VQR       0.044367
     35 H4          16.3740   -27.6630    -1.3110 h1         1 VQR       0.058700
     36 H5          17.9950   -25.9820     0.0650 hc         1 VQR       0.067200
     37 H6          17.3260   -26.8050     1.4460 hc         1 VQR       0.067200
     38 H7          19.4380   -27.7880     0.8010 hc         1 VQR       0.052700
     39 H8          19.9760   -28.7780    -1.3610 hc         1 VQR       0.032533
     40 H9          18.3620   -28.4190    -1.9970 hc         1 VQR       0.032533
     41 H10         19.4780   -27.0940    -1.5980 hc         1 VQR       0.032533
     42 H11         17.7900   -29.4250     1.6660 hc         1 VQR       0.032533
     43 H12         17.2770   -29.8040     0.0020 hc         1 VQR       0.032533
     44 H13         18.9270   -30.1750     0.5340 hc         1 VQR       0.032533
     45 H14         14.1420   -22.5340     0.7790 h1         1 VQR       0.069700
     46 H15         13.8760   -21.8710    -0.8370 h1         1 VQR       0.069700
     47 H16         12.0460   -22.7230    -2.3180 ha         1 VQR       0.120500
     48 H17          9.7270   -23.6120    -2.3800 ha         1 VQR       0.114500
     49 H18          8.7650   -24.7430    -0.3780 ha         1 VQR       0.121000
     50 H19         10.1260   -24.9630     1.6990 ha         1 VQR       0.114500
     51 H20         12.4410   -24.0670     1.7760 ha         1 VQR       0.120500
     52 H21         13.8560   -31.4320    -1.7740 hc         1 VQR       0.065200
     53 H22         13.4040   -30.5160    -0.4190 hc         1 VQR       0.065200
     54 H23         13.5400   -29.2940    -3.2630 hc         1 VQR       0.056700
     55 H24         14.9010   -29.3650    -2.1820 hc         1 VQR       0.056700
     56 H25         14.0250   -27.1610    -2.0690 h1         1 VQR       0.058700
     57 H26         11.7980   -26.5750    -1.1370 hc         1 VQR       0.066200
     58 H27         11.2970   -28.2420    -1.2730 hc         1 VQR       0.066200
     59 H28         11.5980   -28.1100    -3.7930 hc         1 VQR       0.093700
     60 H29         13.2440   -26.3750    -4.3060 hc         1 VQR       0.057200
     61 H30         12.4670   -25.2210    -3.2190 hc         1 VQR       0.057200
     62 H31         11.4260   -24.6050    -5.3360 h1         1 VQR       0.041700
     63 H32         11.3530   -26.2980    -5.8890 h1         1 VQR       0.041700
     64 H33          9.1290   -25.3730    -4.5280 hn         1 VQR       0.326500
     65 H34         13.0880   -28.2620     0.5080 hn         1 VQR       0.308500
     66 H35         15.7460   -25.5280    -1.8330 hn         1 VQR       0.326500
     67 O3           9.0960   -26.9840    -2.5680 o          1 VQR      -0.550000
     68 C17         15.0970   -24.8330    -0.0500 c          1 VQR       0.636100
@<TRIPOS>BOND
     1     1    27 1   
     2     1    32 1   
     3     1    33 1   
     4     1    34 1   
     5     2    21 1   
     6     2    24 1   
     7     2    67 2   
     8     3     4 1   
     9     3    25 1   
    10     3    29 2   
    11     4     5 1   
    12     4    26 1   
    13     4    35 1   
    14     5     6 1   
    15     5    36 1   
    16     5    37 1   
    17     6     7 1   
    18     6     8 1   
    19     6    38 1   
    20     7    39 1   
    21     7    40 1   
    22     7    41 1   
    23     8    42 1   
    24     8    43 1   
    25     8    44 1   
    26     9    10 1   
    27     9    31 1   
    28     9    45 1   
    29     9    46 1   
    30    10    12 ar  
    31    10    16 ar  
    32    11    17 1   
    33    11    27 1   
    34    11    28 2   
    35    12    13 ar  
    36    12    47 1   
    37    13    14 ar  
    38    13    48 1   
    39    14    15 ar  
    40    14    49 1   
    41    15    16 ar  
    42    15    50 1   
    43    16    51 1   
    44    17    18 1   
    45    17    52 1   
    46    17    53 1   
    47    18    19 1   
    48    18    54 1   
    49    18    55 1   
    50    19    20 1   
    51    19    25 1   
    52    19    56 1   
    53    20    21 1   
    54    20    57 1   
    55    20    58 1   
    56    21    22 1   
    57    21    59 1   
    58    22    23 1   
    59    22    60 1   
    60    22    61 1   
    61    23    24 1   
    62    23    62 1   
    63    23    63 1   
    64    24    64 1   
    65    25    65 1   
    66    26    66 1   
    67    26    68 1   
    68    30    68 2   
    69    31    68 1   
@<TRIPOS>SUBSTRUCTURE
     1 VQR         1 TEMP              0 ****  ****    0 ROOT
