@<TRIPOS>MOLECULE
VQS
   66    70     1     0     0
SMALL
No Charge or Current Charge


@<TRIPOS>ATOM
      1 C13         -1.4350   -46.4240    13.4150 cx         1 VQS      -0.069400
      2 C17          3.9030   -47.0650    12.9290 cp         1 VQS       0.252500
      3 C20          3.9410   -49.0900    16.2060 ca         1 VQS      -0.134500
      4 C21          5.7460   -47.6820    14.5910 ca         1 VQS      -0.050500
      5 C22          6.1890   -48.3120    15.7670 ca         1 VQS      -0.134500
      6 C28          7.2010   -51.4510    21.8580 c3         1 VQS       0.138600
      7 C02          6.8010   -45.5660    10.2700 c6         1 VQS       0.211500
      8 C04          4.3900   -45.7870    11.0630 ca         1 VQS       0.405900
      9 C05          3.0460   -45.8710    10.6660 ca         1 VQS      -0.263000
     10 C06          2.1570   -46.5700    11.4950 ca         1 VQS       0.201300
     11 C07          0.7060   -46.7700    11.1160 cx         1 VQS      -0.416300
     12 C08          0.5170   -47.6830     9.9070 cx         1 VQS      -0.064900
     13 C09         -0.0040   -48.1220    11.2430 cx         1 VQS      -0.064900
     14 C11         -0.2800   -45.6590    12.7820 cx         1 VQS      -0.387700
     15 C12         -1.2840   -44.9500    13.6770 cx         1 VQS      -0.069400
     16 C18          4.3830   -47.7380    14.1910 cp         1 VQS      -0.160500
     17 C19          3.4930   -48.4640    15.0300 ca         1 VQS      -0.050500
     18 C23          5.2910   -49.0070    16.5920 ca         1 VQS       0.083600
     19 C27          5.8850   -51.1850    21.0900 c3         1 VQS       0.101000
     20 C32          4.9750   -44.1970     9.1640 c6         1 VQS       0.190800
     21 C33          6.0630   -43.1400     8.8100 c6         1 VQS       0.149600
     22 C35          7.7900   -44.4260     9.8640 c6         1 VQS       0.143600
     23 N03          5.3690   -45.0950    10.3050 nh         1 VQS      -0.783300
     24 N16          2.5990   -47.1850    12.6090 nb         1 VQS      -0.242000
     25 N24          5.7960   -49.6360    17.7560 ns         1 VQS      -0.372100
     26 N26          6.1270   -50.6750    19.7340 ns         1 VQS      -0.448900
     27 N31          4.8060   -46.3840    12.1950 nb         1 VQS      -0.272000
     28 O14         -1.5680   -45.2860    10.3460 o          1 VQS      -0.526000
     29 O15          0.6290   -43.9580    10.7790 o          1 VQS      -0.526000
     30 O29          8.0890   -52.2720    21.0790 oh         1 VQS      -0.673000
     31 O34          7.3590   -43.7600     8.6560 os         1 VQS      -0.450000
     32 S10         -0.2510   -45.1170    10.9770 s6         1 VQS       1.177000
     33 S30          3.6930   -49.6060    19.4680 s          1 VQS      -0.651400
     34 H1          -2.2690   -46.7310    12.7880 hc         1 VQS       0.086200
     35 H2          -1.2000   -47.1130    14.2240 hc         1 VQS       0.086200
     36 H3           3.2290   -49.6560    16.7970 ha         1 VQS       0.128000
     37 H4           6.4780   -47.1480    13.9890 ha         1 VQS       0.135000
     38 H5           7.2400   -48.2470    16.0410 ha         1 VQS       0.128000
     39 H6           7.6790   -50.4880    22.0830 h1         1 VQS       0.036700
     40 H7           6.9640   -51.9360    22.8150 h1         1 VQS       0.036700
     41 H8           6.2630   -47.6090     9.6540 hc         1 VQS       0.046033
     42 H9           6.6500   -46.5390     8.2960 hc         1 VQS       0.046033
     43 H10          7.9450   -47.1830     9.3180 hc         1 VQS       0.046033
     44 H11          7.1170   -45.8970    11.2710 h1         1 VQS       0.081700
     45 H12          2.6970   -45.4290     9.7400 ha         1 VQS       0.136000
     46 H13          1.3860   -48.2080     9.5140 hc         1 VQS       0.089700
     47 H14         -0.2160   -47.4110     9.1500 hc         1 VQS       0.089700
     48 H15         -1.0860   -48.1610    11.3420 hc         1 VQS       0.089700
     49 H16          0.5180   -48.9310    11.7490 hc         1 VQS       0.089700
     50 H17          0.7140   -45.6450    13.2130 h1         1 VQS       0.148700
     51 H18         -2.0120   -44.2820    13.2190 hc         1 VQS       0.086200
     52 H19         -0.9580   -44.6460    14.6700 hc         1 VQS       0.086200
     53 H20          2.4400   -48.5540    14.7710 ha         1 VQS       0.135000
     54 H21          5.2880   -50.4580    21.6560 h1         1 VQS       0.082200
     55 H22          5.3100   -52.1170    21.0200 h1         1 VQS       0.082200
     56 H23          4.0540   -43.6480     9.4110 h1         1 VQS       0.055700
     57 H24          4.7640   -44.8000     8.2690 h1         1 VQS       0.055700
     58 H25          6.1190   -42.3840     9.6070 h1         1 VQS       0.051700
     59 H26          5.7940   -42.6280     7.8760 h1         1 VQS       0.051700
     60 H27          8.7970   -44.8390     9.7090 h1         1 VQS       0.055200
     61 H28          7.8530   -43.6880    10.6770 h1         1 VQS       0.055200
     62 H29          6.7740   -49.8820    17.6710 hn         1 VQS       0.306500
     63 H30          7.0400   -50.8750    19.3410 hn         1 VQS       0.316500
     64 H31          8.8900   -52.4330    21.6290 ho         1 VQS       0.451000
     65 C01          6.9200   -46.7950     9.3280 c3         1 VQS      -0.098100
     66 C25          5.2360   -49.9980    18.9520 cs         1 VQS       0.480400
@<TRIPOS>BOND
     1     1    14 1   
     2     1    15 1   
     3     1    34 1   
     4     1    35 1   
     5     2    16 1   
     6     2    24 ar  
     7     2    27 ar  
     8     3    17 ar  
     9     3    18 ar  
    10     3    36 1   
    11     4     5 ar  
    12     4    16 ar  
    13     4    37 1   
    14     5    18 ar  
    15     5    38 1   
    16     6    19 1   
    17     6    30 1   
    18     6    39 1   
    19     6    40 1   
    20     7    22 1   
    21     7    23 1   
    22     7    44 1   
    23     7    65 1   
    24     8     9 ar  
    25     8    23 1   
    26     8    27 ar  
    27     9    10 ar  
    28     9    45 1   
    29    10    11 1   
    30    10    24 ar  
    31    11    12 1   
    32    11    13 1   
    33    11    32 1   
    34    12    13 1   
    35    12    46 1   
    36    12    47 1   
    37    13    48 1   
    38    13    49 1   
    39    14    15 1   
    40    14    32 1   
    41    14    50 1   
    42    15    51 1   
    43    15    52 1   
    44    16    17 ar  
    45    17    53 1   
    46    18    25 1   
    47    19    26 1   
    48    19    54 1   
    49    19    55 1   
    50    20    21 1   
    51    20    23 1   
    52    20    56 1   
    53    20    57 1   
    54    21    31 1   
    55    21    58 1   
    56    21    59 1   
    57    22    31 1   
    58    22    60 1   
    59    22    61 1   
    60    25    62 1   
    61    25    66 1   
    62    26    63 1   
    63    26    66 1   
    64    28    32 2   
    65    29    32 2   
    66    30    64 1   
    67    33    66 2   
    68    41    65 1   
    69    42    65 1   
    70    43    65 1   
@<TRIPOS>SUBSTRUCTURE
     1 VQS         1 TEMP              0 ****  ****    0 ROOT
