@<TRIPOS>MOLECULE
VQS
   66    70     1     0     0
SMALL
abcg2


@<TRIPOS>ATOM
      1 C13         -1.1390   -47.3950    13.9880 cx         1 VQS      -0.069400
      2 C17          3.9200   -47.1110    12.6500 cp         1 VQS       0.252500
      3 C20          3.8360   -49.1190    15.8440 ca         1 VQS      -0.134500
      4 C21          5.7130   -47.9060    14.1980 ca         1 VQS      -0.050500
      5 C22          6.1190   -48.5530    15.3510 ca         1 VQS      -0.134500
      6 C28          6.8670   -50.9410    21.6160 c3         1 VQS       0.138600
      7 C02          6.8320   -45.2180    10.5680 c6         1 VQS       0.211500
      8 C04          4.4860   -45.8590    10.8230 ca         1 VQS       0.405900
      9 C05          3.1140   -45.7390    10.5050 ca         1 VQS      -0.263000
     10 C06          2.2310   -46.3910    11.3290 ca         1 VQS       0.201300
     11 C07          0.7610   -46.3360    11.0880 cx         1 VQS      -0.416300
     12 C08          0.2000   -46.2810     9.6970 cx         1 VQS      -0.064900
     13 C09          0.0400   -47.5180    10.5110 cx         1 VQS      -0.064900
     14 C11         -0.1150   -46.3230    13.7930 cx         1 VQS      -0.387700
     15 C12         -1.2530   -46.1170    14.7490 cx         1 VQS      -0.069400
     16 C18          4.3630   -47.8340    13.8600 cp         1 VQS      -0.160500
     17 C19          3.4370   -48.4590    14.6960 ca         1 VQS      -0.050500
     18 C23          5.1840   -49.1530    16.1930 ca         1 VQS       0.083600
     19 C27          5.5790   -50.7280    20.8520 c3         1 VQS       0.101000
     20 C32          5.1400   -44.5480     8.8730 c6         1 VQS       0.190800
     21 C33          6.3670   -44.4290     7.9880 c6         1 VQS       0.149600
     22 C35          7.4370   -43.9240    10.0440 c6         1 VQS       0.143600
     23 N03          5.4540   -45.2970    10.0780 nh         1 VQS      -0.783300
     24 N16          2.6180   -47.0890    12.3990 nb         1 VQS      -0.242000
     25 N24          5.6600   -49.8340    17.3200 ns         1 VQS      -0.372100
     26 N26          5.8510   -50.5840    19.4400 ns         1 VQS      -0.448900
     27 N31          4.8570   -46.5390    11.9100 nb         1 VQS      -0.272000
     28 O14         -1.5000   -45.2230    11.8680 o          1 VQS      -0.526000
     29 O15          0.6750   -44.1580    12.5520 o          1 VQS      -0.526000
     30 O29          7.4900   -52.1090    21.1280 oh         1 VQS      -0.673000
     31 O34          7.4850   -43.8600     8.6360 os         1 VQS      -0.450000
     32 S10         -0.1120   -45.3660    12.3140 s6         1 VQS       1.177000
     33 S30          3.8650   -48.8680    19.0610 s          1 VQS      -0.651400
     34 H1          -1.8590   -47.5730    13.2000 hc         1 VQS       0.086200
     35 H2          -0.8030   -48.2850    14.5030 hc         1 VQS       0.086200
     36 H3           3.1000   -49.6100    16.4620 ha         1 VQS       0.128000
     37 H4           6.4530   -47.4400    13.5620 ha         1 VQS       0.135000
     38 H5           7.1710   -48.5870    15.6060 ha         1 VQS       0.128000
     39 H6           7.5070   -50.0590    21.4930 h1         1 VQS       0.036700
     40 H7           6.6210   -51.0210    22.6820 h1         1 VQS       0.036700
     41 H8           7.1960   -47.3470    10.6360 hc         1 VQS       0.046033
     42 H9           7.7550   -46.5970     9.1430 hc         1 VQS       0.046033
     43 H10          8.6560   -46.3610    10.6390 hc         1 VQS       0.046033
     44 H11          6.7980   -45.1290    11.6560 h1         1 VQS       0.081700
     45 H12          2.7600   -45.1520     9.6720 ha         1 VQS       0.136000
     46 H13          0.9180   -46.2860     8.8870 hc         1 VQS       0.089700
     47 H14         -0.6730   -45.6700     9.5150 hc         1 VQS       0.089700
     48 H15         -0.9440   -47.7570    10.8920 hc         1 VQS       0.089700
     49 H16          0.6520   -48.3790    10.2770 hc         1 VQS       0.089700
     50 H17          0.8810   -46.4690    14.1900 h1         1 VQS       0.148700
     51 H18         -2.0470   -45.4360    14.4750 hc         1 VQS       0.086200
     52 H19         -0.9910   -46.1060    15.7980 hc         1 VQS       0.086200
     53 H20          2.3880   -48.4410    14.4370 ha         1 VQS       0.135000
     54 H21          5.0920   -49.8250    21.2140 h1         1 VQS       0.082200
     55 H22          4.8900   -51.5610    21.0250 h1         1 VQS       0.082200
     56 H23          4.7400   -43.5570     9.1160 h1         1 VQS       0.055700
     57 H24          4.3780   -45.0700     8.2920 h1         1 VQS       0.055700
     58 H25          6.1090   -43.8040     7.1300 h1         1 VQS       0.051700
     59 H26          6.6210   -45.4220     7.5980 h1         1 VQS       0.051700
     60 H27          8.4620   -43.8360    10.4090 h1         1 VQS       0.055200
     61 H28          6.8730   -43.0760    10.4540 h1         1 VQS       0.055200
     62 H29          6.5750   -50.2480    17.1960 hn         1 VQS       0.306500
     63 H30          6.5780   -51.1850    19.0760 hn         1 VQS       0.316500
     64 H31          8.3930   -52.1350    21.4550 ho         1 VQS       0.451000
     65 C01          7.6540   -46.4520    10.2180 c3         1 VQS      -0.098100
     66 C25          5.1730   -49.8100    18.5890 cs         1 VQS       0.480400
@<TRIPOS>BOND
     1     1    14 1   
     2     1    15 1   
     3     1    34 1   
     4     1    35 1   
     5     2    16 1   
     6     2    24 ar  
     7     2    27 ar  
     8     3    17 ar  
     9     3    18 ar  
    10     3    36 1   
    11     4     5 ar  
    12     4    16 ar  
    13     4    37 1   
    14     5    18 ar  
    15     5    38 1   
    16     6    19 1   
    17     6    30 1   
    18     6    39 1   
    19     6    40 1   
    20     7    22 1   
    21     7    23 1   
    22     7    44 1   
    23     7    65 1   
    24     8     9 ar  
    25     8    23 1   
    26     8    27 ar  
    27     9    10 ar  
    28     9    45 1   
    29    10    11 1   
    30    10    24 ar  
    31    11    12 1   
    32    11    13 1   
    33    11    32 1   
    34    12    13 1   
    35    12    46 1   
    36    12    47 1   
    37    13    48 1   
    38    13    49 1   
    39    14    15 1   
    40    14    32 1   
    41    14    50 1   
    42    15    51 1   
    43    15    52 1   
    44    16    17 ar  
    45    17    53 1   
    46    18    25 1   
    47    19    26 1   
    48    19    54 1   
    49    19    55 1   
    50    20    21 1   
    51    20    23 1   
    52    20    56 1   
    53    20    57 1   
    54    21    31 1   
    55    21    58 1   
    56    21    59 1   
    57    22    31 1   
    58    22    60 1   
    59    22    61 1   
    60    25    62 1   
    61    25    66 1   
    62    26    63 1   
    63    26    66 1   
    64    28    32 2   
    65    29    32 2   
    66    30    64 1   
    67    33    66 2   
    68    41    65 1   
    69    42    65 1   
    70    43    65 1   
@<TRIPOS>SUBSTRUCTURE
     1 VQS         1 TEMP              0 ****  ****    0 ROOT
