@<TRIPOS>MOLECULE
VQU
   23    24     1     0     0
SMALL
abcg2


@<TRIPOS>ATOM
      1 N1          -0.9900    16.1620   -36.6970 n7         1 VQU      -0.794400
      2 C7           0.1220    15.1140   -34.8110 c5         1 VQU       0.091600
      3 C8          -1.9910    14.0240   -35.7740 c          1 VQU       0.728000
      4 O1          -2.1890    13.3210   -34.7510 o          1 VQU      -0.714500
      5 C1           1.3110    17.7660   -37.9350 ca         1 VQU      -0.061000
      6 C5           0.0970    15.5950   -37.4490 c5         1 VQU       0.424800
      7 C6          -1.2400    15.3600   -35.5020 c5         1 VQU       0.017500
      8 C4           1.9190    18.2440   -40.1960 ca         1 VQU       0.317900
      9 C3           0.8430    16.2800   -39.7380 ca         1 VQU       0.348900
     10 C2           0.7620    16.5640   -38.3770 ca         1 VQU      -0.103300
     11 O           -2.3530    13.7630   -36.9440 o          1 VQU      -0.714500
     12 S            1.3260    14.8860   -36.1660 ss         1 VQU      -0.642000
     13 N            1.4090    17.0920   -40.6370 nb         1 VQU      -0.679000
     14 C            1.8910    18.6230   -38.8570 ca         1 VQU      -0.176000
     15 H1          -0.7590    17.1090   -36.4160 hn         1 VQU       0.380000
     16 H3           0.0930    14.2270   -34.1850 h1         1 VQU       0.061700
     17 H4           0.4130    15.9760   -34.2120 h1         1 VQU       0.061700
     18 H7          -0.2600    14.7290   -37.9980 h2         1 VQU       0.128700
     19 H8          -1.8790    15.9400   -34.8340 h1         1 VQU       0.057700
     20 H10          0.4300    15.3510   -40.1170 h4         1 VQU       0.030100
     21 H11          2.3230    19.5660   -38.5500 ha         1 VQU       0.110000
     22 H6           1.2940    18.0230   -36.8830 ha         1 VQU       0.122000
     23 H9           2.3720    18.8910   -40.9390 h4         1 VQU       0.003100
@<TRIPOS>BOND
     1     1     6 1   
     2     1     7 1   
     3     1    15 1   
     4     2     7 1   
     5     2    12 1   
     6     2    16 1   
     7     2    17 1   
     8     3     4 1   
     9     3     7 1   
    10     3    11 1   
    11     5    10 ar  
    12     5    14 ar  
    13     5    22 1   
    14     6    10 1   
    15     6    12 1   
    16     6    18 1   
    17     7    19 1   
    18     8    13 ar  
    19     8    14 ar  
    20     8    23 1   
    21     9    10 ar  
    22     9    13 ar  
    23     9    20 1   
    24    14    21 1   
@<TRIPOS>SUBSTRUCTURE
     1 VQU         1 TEMP              0 ****  ****    0 ROOT
