@<TRIPOS>MOLECULE
VQU
   23    24     1     0     0
SMALL
No Charge or Current Charge


@<TRIPOS>ATOM
      1 N1          -0.8380    16.3390   -36.5090 n7         1 VQU      -0.794400
      2 C7           0.0730    14.8260   -34.7800 c5         1 VQU       0.091600
      3 C8          -2.1240    14.1110   -35.8810 c          1 VQU       0.728000
      4 O1          -3.2490    13.9890   -35.4130 o          1 VQU      -0.714500
      5 C1           1.3750    17.9370   -38.0430 ca         1 VQU      -0.061000
      6 C5           0.3110    15.7530   -37.2090 c5         1 VQU       0.424800
      7 C6          -1.2460    15.3520   -35.4290 c5         1 VQU       0.017500
      8 C4           1.7790    18.1760   -40.4200 ca         1 VQU       0.317900
      9 C3           0.8190    16.2140   -39.6440 ca         1 VQU       0.348900
     10 C2           0.8470    16.6560   -38.3080 ca         1 VQU      -0.103300
     11 O           -1.6840    13.3160   -36.7020 o          1 VQU      -0.714500
     12 S            1.4440    15.6060   -35.7650 ss         1 VQU      -0.642000
     13 N            1.2750    16.9510   -40.6880 nb         1 VQU      -0.679000
     14 C            1.8480    18.7040   -39.1200 ca         1 VQU      -0.176000
     15 H1          -0.4780    17.1830   -36.0590 hn         1 VQU       0.380000
     16 H3           0.1530    13.7310   -34.8310 h1         1 VQU       0.061700
     17 H4           0.1520    15.1200   -33.7240 h1         1 VQU       0.061700
     18 H7           0.0870    14.7570   -37.6220 h2         1 VQU       0.128700
     19 H8          -1.8400    15.8810   -34.6710 h1         1 VQU       0.057700
     20 H10          0.4180    15.2320   -39.8930 h4         1 VQU       0.030100
     21 H11          2.2620    19.6940   -38.9560 ha         1 VQU       0.110000
     22 H6           1.4210    18.3260   -37.0280 ha         1 VQU       0.122000
     23 H9           2.1390    18.7510   -41.2730 h4         1 VQU       0.003100
@<TRIPOS>BOND
     1     1     6 1   
     2     1     7 1   
     3     1    15 1   
     4     2     7 1   
     5     2    12 1   
     6     2    16 1   
     7     2    17 1   
     8     3     4 1   
     9     3     7 1   
    10     3    11 1   
    11     5    10 ar  
    12     5    14 ar  
    13     5    22 1   
    14     6    10 1   
    15     6    12 1   
    16     6    18 1   
    17     7    19 1   
    18     8    13 ar  
    19     8    14 ar  
    20     8    23 1   
    21     9    10 ar  
    22     9    13 ar  
    23     9    20 1   
    24    14    21 1   
@<TRIPOS>SUBSTRUCTURE
     1 VQU         1 TEMP              0 ****  ****    0 ROOT
