@<TRIPOS>MOLECULE
VQY
   95    98     1     0     0
SMALL
No Charge or Current Charge


@<TRIPOS>ATOM
      1 C11        -33.2250    39.3250    18.1230 ca         1 VQY      -0.107000
      2 C12        -34.5690    39.4530    17.7370 ca         1 VQY      -0.114000
      3 C13        -34.9250    39.3560    16.3800 ca         1 VQY      -0.106500
      4 C10        -32.2370    39.0990    17.1510 ca         1 VQY      -0.114000
      5 C01        -33.2760    41.3490    13.4850 c5         1 VQY      -0.099700
      6 C02        -33.8570    42.3790    12.4450 c5         1 VQY       0.169300
      7 C04        -34.0100    41.5420    11.1430 c5         1 VQY      -0.074400
      8 C05        -34.5910    40.2120    11.6920 c5         1 VQY      -0.066400
      9 C06        -33.6410    39.9290    12.9010 c5         1 VQY       0.041400
     10 C08        -33.9390    39.1320    15.3970 ca         1 VQY      -0.052800
     11 C09        -32.5940    39.0030    15.7960 ca         1 VQY      -0.106500
     12 C14        -35.2330    38.0630    13.6510 c2         1 VQY      -0.301000
     13 C15        -32.3030    39.4280    12.3740 ce         1 VQY      -0.066400
     14 C16        -32.2050    38.1560    11.6030 ca         1 VQY      -0.037800
     15 C17        -32.3920    36.9150    12.2410 ca         1 VQY      -0.098500
     16 C18        -32.2990    35.7190    11.5090 ca         1 VQY      -0.114000
     17 C19        -32.0210    35.7580    10.1320 ca         1 VQY      -0.111000
     18 C20        -31.8360    36.9930     9.4890 ca         1 VQY      -0.114000
     19 C21        -31.9290    38.1880    10.2230 ca         1 VQY      -0.098500
     20 C22        -31.2350    40.2100    12.6040 c2         1 VQY      -0.109400
     21 C23        -29.7770    39.9970    12.2240 c3         1 VQY      -0.028200
     22 C24        -28.9210    39.4950    13.4090 c3         1 VQY      -0.067400
     23 C25        -29.1910    38.0200    13.7860 c3         1 VQY      -0.079400
     24 C26        -28.6170    37.6290    15.1630 c3         1 VQY      -0.076400
     25 C27        -28.9650    36.1760    15.5630 c3         1 VQY      -0.073400
     26 C28        -28.4610    35.7580    16.9650 c3         1 VQY      -0.071400
     27 C29        -29.1630    36.4880    18.1350 c3         1 VQY      -0.074400
     28 C30        -28.7100    35.9780    19.5200 c3         1 VQY      -0.105400
     29 C31        -29.4030    36.7200    20.6860 c3         1 VQY       0.228600
     30 C35        -27.4100    33.5030    22.9630 c3         1 VQY       0.210600
     31 C36        -26.5810    34.1460    21.8190 c3         1 VQY       0.062600
     32 C38        -25.9860    36.3430    22.9400 c3         1 VQY       0.077233
     33 C39        -24.3780    34.4280    23.0260 c3         1 VQY       0.077233
     34 C40        -24.7900    35.6210    20.8750 c3         1 VQY       0.077233
     35 C43        -31.7000    41.4060    13.4190 c5         1 VQY      -0.041200
     36 N37        -25.4430    35.1310    22.1730 n4         1 VQY      -0.487000
     37 O03        -35.1160    42.8960    12.8780 oh         1 VQY      -0.658000
     38 O32        -28.9030    36.2200    21.9330 os         1 VQY      -0.640400
     39 O34        -28.3490    34.4390    23.5240 os         1 VQY      -0.571400
     40 O41        -30.1020    33.9370    21.7360 o          1 VQY      -0.787500
     41 O42        -30.6950    35.4710    23.5860 o          1 VQY      -0.787500
     42 P33        -29.6150    34.9830    22.6810 p5         1 VQY       1.364800
     43 H111       -32.9490    39.4000    19.1730 ha         1 VQY       0.116000
     44 H121       -35.3370    39.6280    18.4880 ha         1 VQY       0.113000
     45 H131       -35.9670    39.4600    16.0880 ha         1 VQY       0.117000
     46 H101       -31.1950    38.9980    17.4460 ha         1 VQY       0.113000
     47 H011       -33.6500    41.5440    14.4950 hc         1 VQY       0.069700
     48 H021       -33.1740    43.2240    12.2780 h1         1 VQY       0.036700
     49 H042       -34.6770    42.0190    10.4170 hc         1 VQY       0.052700
     50 H041       -33.0470    41.3960    10.6400 hc         1 VQY       0.052700
     51 H051       -35.6300    40.3460    12.0170 hc         1 VQY       0.055700
     52 H052       -34.5910    39.4130    10.9430 hc         1 VQY       0.055700
     53 H091       -31.8250    38.8250    15.0550 ha         1 VQY       0.117000
     54 H142       -35.6690    37.4240    14.4190 ha         1 VQY       0.168000
     55 H141       -35.5550    37.8680    12.6290 ha         1 VQY       0.168000
     56 H171       -32.6010    36.8770    13.3070 ha         1 VQY       0.116000
     57 H181       -32.4410    34.7640    12.0090 ha         1 VQY       0.111500
     58 H191       -31.9490    34.8320     9.5650 ha         1 VQY       0.110000
     59 H201       -31.6220    37.0250     8.4230 ha         1 VQY       0.111500
     60 H211       -31.7870    39.1430     9.7210 ha         1 VQY       0.116000
     61 H232       -29.6810    39.2920    11.3910 hc         1 VQY       0.048700
     62 H231       -29.3570    40.9440    11.8660 hc         1 VQY       0.048700
     63 H241       -27.8590    39.6030    13.1560 hc         1 VQY       0.036700
     64 H242       -29.1030    40.1400    14.2770 hc         1 VQY       0.036700
     65 H251       -30.2690    37.8370    13.7970 hc         1 VQY       0.042200
     66 H252       -28.7730    37.3660    13.0110 hc         1 VQY       0.042200
     67 H261       -27.5270    37.7550    15.1550 hc         1 VQY       0.035200
     68 H262       -29.0160    38.3200    15.9130 hc         1 VQY       0.035200
     69 H272       -30.0520    36.0360    15.5180 hc         1 VQY       0.039200
     70 H271       -28.5320    35.4940    14.8200 hc         1 VQY       0.039200
     71 H281       -28.6190    34.6790    17.0790 hc         1 VQY       0.032700
     72 H282       -27.3780    35.9250    17.0260 hc         1 VQY       0.032700
     73 H292       -28.9610    37.5630    18.0750 hc         1 VQY       0.041200
     74 H291       -30.2490    36.3590    18.0420 hc         1 VQY       0.041200
     75 H302       -28.9110    34.9030    19.5860 hc         1 VQY       0.035700
     76 H301       -27.6260    36.1140    19.6090 hc         1 VQY       0.035700
     77 H311       -29.1950    37.7950    20.6040 h1         1 VQY       0.033200
     78 H312       -30.4910    36.5840    20.6150 h1         1 VQY       0.033200
     79 H351       -26.7320    33.1280    23.7400 h1         1 VQY       0.062200
     80 H352       -27.9420    32.6320    22.5580 h1         1 VQY       0.062200
     81 H361       -26.1190    33.3310    21.2570 hx         1 VQY       0.093200
     82 H362       -27.2660    34.6570    21.1430 hx         1 VQY       0.093200
     83 H382       -26.7060    36.8710    22.3130 hx         1 VQY       0.092478
     84 H383       -26.4760    36.0020    23.8540 hx         1 VQY       0.092478
     85 H381       -25.1600    37.0110    23.1920 hx         1 VQY       0.092478
     86 H393       -23.5620    35.1240    23.2270 hx         1 VQY       0.092478
     87 H392       -24.8230    34.1070    23.9700 hx         1 VQY       0.092478
     88 H391       -23.9960    33.5600    22.4840 hx         1 VQY       0.092478
     89 H401       -25.5370    36.1400    20.2700 hx         1 VQY       0.092478
     90 H403       -23.9760    36.3060    21.1180 hx         1 VQY       0.092478
     91 H402       -24.3980    34.7650    20.3220 hx         1 VQY       0.092478
     92 H432       -31.2800    41.3440    14.4290 hc         1 VQY       0.052200
     93 H431       -31.3190    42.3420    12.9960 hc         1 VQY       0.052200
     94 H031       -34.9470    43.3940    13.7070 ho         1 VQY       0.441000
     95 C07        -34.3280    39.0220    13.9570 ce         1 VQY      -0.044400
@<TRIPOS>BOND
     1     1     2 ar  
     2     1     4 ar  
     3     1    43 1   
     4     2     3 ar  
     5     2    44 1   
     6     3    10 ar  
     7     3    45 1   
     8     4    11 ar  
     9     4    46 1   
    10     5     6 1   
    11     5     9 1   
    12     5    35 1   
    13     5    47 1   
    14     6     7 1   
    15     6    37 1   
    16     6    48 1   
    17     7     8 1   
    18     7    49 1   
    19     7    50 1   
    20     8     9 1   
    21     8    51 1   
    22     8    52 1   
    23     9    13 1   
    24     9    95 1   
    25    10    11 ar  
    26    10    95 1   
    27    11    53 1   
    28    12    54 1   
    29    12    55 1   
    30    12    95 2   
    31    13    14 1   
    32    13    20 2   
    33    14    15 ar  
    34    14    19 ar  
    35    15    16 ar  
    36    15    56 1   
    37    16    17 ar  
    38    16    57 1   
    39    17    18 ar  
    40    17    58 1   
    41    18    19 ar  
    42    18    59 1   
    43    19    60 1   
    44    20    21 1   
    45    20    35 1   
    46    21    22 1   
    47    21    61 1   
    48    21    62 1   
    49    22    23 1   
    50    22    63 1   
    51    22    64 1   
    52    23    24 1   
    53    23    65 1   
    54    23    66 1   
    55    24    25 1   
    56    24    67 1   
    57    24    68 1   
    58    25    26 1   
    59    25    69 1   
    60    25    70 1   
    61    26    27 1   
    62    26    71 1   
    63    26    72 1   
    64    27    28 1   
    65    27    73 1   
    66    27    74 1   
    67    28    29 1   
    68    28    75 1   
    69    28    76 1   
    70    29    38 1   
    71    29    77 1   
    72    29    78 1   
    73    30    31 1   
    74    30    39 1   
    75    30    79 1   
    76    30    80 1   
    77    31    36 1   
    78    31    81 1   
    79    31    82 1   
    80    32    36 1   
    81    32    83 1   
    82    32    84 1   
    83    32    85 1   
    84    33    36 1   
    85    33    86 1   
    86    33    87 1   
    87    33    88 1   
    88    34    36 1   
    89    34    89 1   
    90    34    90 1   
    91    34    91 1   
    92    35    92 1   
    93    35    93 1   
    94    37    94 1   
    95    38    42 1   
    96    39    42 1   
    97    40    42 1   
    98    41    42 1   
@<TRIPOS>SUBSTRUCTURE
     1 VQY         1 TEMP              0 ****  ****    0 ROOT
