@<TRIPOS>MOLECULE
VQY
   95    98     1     0     0
SMALL
abcg2


@<TRIPOS>ATOM
      1 C11        -35.1000    38.8130    17.1400 ca         1 VQY      -0.107000
      2 C12        -36.2450    39.0410    16.3870 ca         1 VQY      -0.114000
      3 C13        -36.1550    39.2150    15.0130 ca         1 VQY      -0.106500
      4 C10        -33.8660    38.7660    16.5040 ca         1 VQY      -0.114000
      5 C01        -33.4470    41.5020    13.1570 c5         1 VQY      -0.099700
      6 C02        -33.8050    42.7290    12.3080 c5         1 VQY       0.169300
      7 C04        -33.6350    42.2290    10.8830 c5         1 VQY      -0.074400
      8 C05        -34.2850    40.8530    10.9260 c5         1 VQY      -0.066400
      9 C06        -33.8230    40.2560    12.2810 c5         1 VQY       0.041400
     10 C08        -34.9220    39.1620    14.3600 ca         1 VQY      -0.052800
     11 C09        -33.7790    38.9450    15.1320 ca         1 VQY      -0.106500
     12 C14        -35.6880    38.6110    12.1240 c2         1 VQY      -0.301000
     13 C15        -32.4760    39.5620    12.0840 ce         1 VQY      -0.066400
     14 C16        -32.3490    38.3370    11.2700 ca         1 VQY      -0.037800
     15 C17        -32.6200    37.0840    11.8190 ca         1 VQY      -0.098500
     16 C18        -32.4860    35.9300    11.0580 ca         1 VQY      -0.114000
     17 C19        -32.0820    36.0110     9.7310 ca         1 VQY      -0.111000
     18 C20        -31.8110    37.2520     9.1720 ca         1 VQY      -0.114000
     19 C21        -31.9440    38.4040     9.9370 ca         1 VQY      -0.098500
     20 C22        -31.4630    40.2130    12.6600 c2         1 VQY      -0.109400
     21 C23        -30.0060    39.8850    12.5760 c3         1 VQY      -0.028200
     22 C24        -29.3770    39.4670    13.9080 c3         1 VQY      -0.067400
     23 C25        -29.8540    38.1110    14.4060 c3         1 VQY      -0.079400
     24 C26        -29.1990    37.6930    15.7170 c3         1 VQY      -0.076400
     25 C27        -29.6950    36.3430    16.2210 c3         1 VQY      -0.073400
     26 C28        -28.9400    35.8130    17.4370 c3         1 VQY      -0.071400
     27 C29        -29.1080    36.6510    18.6990 c3         1 VQY      -0.074400
     28 C30        -28.3550    36.0710    19.8900 c3         1 VQY      -0.105400
     29 C31        -28.5290    36.9110    21.1410 c3         1 VQY       0.228600
     30 C35        -26.6310    33.7660    23.7760 c3         1 VQY       0.210600
     31 C36        -25.7970    33.7640    22.5080 c3         1 VQY       0.062600
     32 C38        -24.4340    35.7830    23.0250 c3         1 VQY       0.077233
     33 C39        -23.5460    33.5710    23.5030 c3         1 VQY       0.077233
     34 C40        -23.8270    34.2970    21.2130 c3         1 VQY       0.077233
     35 C43        -31.9380    41.4020    13.4380 c5         1 VQY      -0.041200
     36 N37        -24.4130    34.3590    22.5840 n4         1 VQY      -0.487000
     37 O03        -35.1580    43.1080    12.4690 oh         1 VQY      -0.658000
     38 O32        -27.7380    36.4220    22.2140 os         1 VQY      -0.640400
     39 O34        -27.1330    35.0210    24.1660 os         1 VQY      -0.571400
     40 O41        -29.3490    34.5540    22.9300 o          1 VQY      -0.787500
     41 O42        -29.0100    36.6670    24.4300 o          1 VQY      -0.787500
     42 P33        -28.4850    35.6540    23.4660 p5         1 VQY       1.364800
     43 H111       -35.1690    38.6780    18.2120 ha         1 VQY       0.116000
     44 H121       -37.2120    39.0910    16.8710 ha         1 VQY       0.113000
     45 H131       -37.0520    39.4090    14.4390 ha         1 VQY       0.117000
     46 H101       -32.9640    38.5870    17.0770 ha         1 VQY       0.113000
     47 H011       -34.0020    41.5270    14.0960 hc         1 VQY       0.069700
     48 H021       -33.1410    43.5740    12.5370 h1         1 VQY       0.036700
     49 H042       -34.0790    42.8970    10.1420 hc         1 VQY       0.052700
     50 H041       -32.5700    42.1490    10.6520 hc         1 VQY       0.052700
     51 H051       -35.3710    40.9580    10.9080 hc         1 VQY       0.055700
     52 H052       -34.0140    40.2250    10.0760 hc         1 VQY       0.055700
     53 H091       -32.8110    38.9050    14.6520 ha         1 VQY       0.117000
     54 H142       -36.3850    37.9030    12.5550 ha         1 VQY       0.168000
     55 H141       -35.6890    38.6880    11.0450 ha         1 VQY       0.168000
     56 H171       -32.9250    37.0080    12.8550 ha         1 VQY       0.116000
     57 H181       -32.6940    34.9660    11.5050 ha         1 VQY       0.111500
     58 H191       -31.9780    35.1110     9.1380 ha         1 VQY       0.110000
     59 H201       -31.4920    37.3250     8.1400 ha         1 VQY       0.111500
     60 H211       -31.7250    39.3700     9.4960 ha         1 VQY       0.116000
     61 H232       -29.8370    39.0990    11.8360 hc         1 VQY       0.048700
     62 H231       -29.4810    40.7730    12.2090 hc         1 VQY       0.048700
     63 H241       -28.2900    39.4370    13.7810 hc         1 VQY       0.036700
     64 H242       -29.5690    40.2300    14.6690 hc         1 VQY       0.036700
     65 H251       -30.9390    38.1210    14.5370 hc         1 VQY       0.042200
     66 H252       -29.6520    37.3540    13.6400 hc         1 VQY       0.042200
     67 H261       -28.1120    37.6500    15.5810 hc         1 VQY       0.035200
     68 H262       -29.3800    38.4660    16.4700 hc         1 VQY       0.035200
     69 H272       -30.7640    36.4110    16.4530 hc         1 VQY       0.039200
     70 H271       -29.6090    35.6120    15.4100 hc         1 VQY       0.039200
     71 H281       -29.2740    34.7920    17.6460 hc         1 VQY       0.032700
     72 H282       -27.8750    35.7370    17.1930 hc         1 VQY       0.032700
     73 H292       -28.7600    37.6740    18.5210 hc         1 VQY       0.041200
     74 H291       -30.1740    36.7310    18.9380 hc         1 VQY       0.041200
     75 H302       -28.7000    35.0520    20.0870 hc         1 VQY       0.035700
     76 H301       -27.2890    36.0020    19.6490 hc         1 VQY       0.035700
     77 H311       -28.2150    37.9400    20.9430 h1         1 VQY       0.033200
     78 H312       -29.5920    36.9590    21.4060 h1         1 VQY       0.033200
     79 H351       -26.0660    33.3630    24.6200 h1         1 VQY       0.062200
     80 H352       -27.4420    33.0590    23.5830 h1         1 VQY       0.062200
     81 H361       -25.6540    32.7280    22.1970 hx         1 VQY       0.093200
     82 H362       -26.3170    34.2840    21.7050 hx         1 VQY       0.093200
     83 H382       -25.1080    36.3440    22.3850 hx         1 VQY       0.092478
     84 H383       -24.7650    35.8470    24.0550 hx         1 VQY       0.092478
     85 H381       -23.4240    36.1760    22.9410 hx         1 VQY       0.092478
     86 H393       -22.5400    33.9800    23.4680 hx         1 VQY       0.092478
     87 H392       -23.9230    33.6390    24.5190 hx         1 VQY       0.092478
     88 H391       -23.5330    32.5330    23.1790 hx         1 VQY       0.092478
     89 H401       -24.4400    34.8880    20.5370 hx         1 VQY       0.092478
     90 H403       -22.8180    34.6990    21.2410 hx         1 VQY       0.092478
     91 H402       -23.8030    33.2620    20.8820 hx         1 VQY       0.092478
     92 H432       -31.7350    41.2770    14.5060 hc         1 VQY       0.052200
     93 H431       -31.4010    42.3090    13.1380 hc         1 VQY       0.052200
     94 H031       -35.3130    43.2820    13.4020 ho         1 VQY       0.441000
     95 C07        -34.8560    39.3220    12.8870 ce         1 VQY      -0.044400
@<TRIPOS>BOND
     1     1     2 ar  
     2     1     4 ar  
     3     1    43 1   
     4     2     3 ar  
     5     2    44 1   
     6     3    10 ar  
     7     3    45 1   
     8     4    11 ar  
     9     4    46 1   
    10     5     6 1   
    11     5     9 1   
    12     5    35 1   
    13     5    47 1   
    14     6     7 1   
    15     6    37 1   
    16     6    48 1   
    17     7     8 1   
    18     7    49 1   
    19     7    50 1   
    20     8     9 1   
    21     8    51 1   
    22     8    52 1   
    23     9    13 1   
    24     9    95 1   
    25    10    11 ar  
    26    10    95 1   
    27    11    53 1   
    28    12    54 1   
    29    12    55 1   
    30    12    95 2   
    31    13    14 1   
    32    13    20 2   
    33    14    15 ar  
    34    14    19 ar  
    35    15    16 ar  
    36    15    56 1   
    37    16    17 ar  
    38    16    57 1   
    39    17    18 ar  
    40    17    58 1   
    41    18    19 ar  
    42    18    59 1   
    43    19    60 1   
    44    20    21 1   
    45    20    35 1   
    46    21    22 1   
    47    21    61 1   
    48    21    62 1   
    49    22    23 1   
    50    22    63 1   
    51    22    64 1   
    52    23    24 1   
    53    23    65 1   
    54    23    66 1   
    55    24    25 1   
    56    24    67 1   
    57    24    68 1   
    58    25    26 1   
    59    25    69 1   
    60    25    70 1   
    61    26    27 1   
    62    26    71 1   
    63    26    72 1   
    64    27    28 1   
    65    27    73 1   
    66    27    74 1   
    67    28    29 1   
    68    28    75 1   
    69    28    76 1   
    70    29    38 1   
    71    29    77 1   
    72    29    78 1   
    73    30    31 1   
    74    30    39 1   
    75    30    79 1   
    76    30    80 1   
    77    31    36 1   
    78    31    81 1   
    79    31    82 1   
    80    32    36 1   
    81    32    83 1   
    82    32    84 1   
    83    32    85 1   
    84    33    36 1   
    85    33    86 1   
    86    33    87 1   
    87    33    88 1   
    88    34    36 1   
    89    34    89 1   
    90    34    90 1   
    91    34    91 1   
    92    35    92 1   
    93    35    93 1   
    94    37    94 1   
    95    38    42 1   
    96    39    42 1   
    97    40    42 1   
    98    41    42 1   
@<TRIPOS>SUBSTRUCTURE
     1 VQY         1 TEMP              0 ****  ****    0 ROOT
