@<TRIPOS>MOLECULE
VQZ
   25    25     1     0     0
SMALL
No Charge or Current Charge


@<TRIPOS>ATOM
      1 N1          15.5280    13.4190   -47.0250 n8         1 VQZ      -1.005200
      2 C7          15.2330    13.3960   -45.5670 c3         1 VQZ       0.188100
      3 O1          14.5330    14.4280   -42.7060 o          1 VQZ      -0.536500
      4 C1          14.0600    11.6410   -44.0790 ca         1 VQZ       0.225000
      5 C5          16.0370    10.9870   -45.3540 ca         1 VQZ      -0.091000
      6 C6          15.1010    11.9810   -44.9850 ca         1 VQZ      -0.023300
      7 C4          15.9230     9.6750   -44.8660 ca         1 VQZ      -0.098000
      8 C3          14.8720     9.3370   -44.0030 ca         1 VQZ      -0.104000
      9 C2          13.9450    10.3180   -43.6150 ca         1 VQZ      -0.136000
     10 S           13.3650    13.6160   -42.3610 s6         1 VQZ       1.215100
     11 O           12.0630    14.2400   -42.1240 o          1 VQZ      -0.536500
     12 C           13.7640    12.5710   -40.9770 c3         1 VQZ      -0.389100
     13 H1          15.6390    14.3950   -47.3260 hn         1 VQZ       0.398000
     14 H2          16.4540    13.0100   -47.1870 hn         1 VQZ       0.398000
     15 H4          16.0350    13.9270   -45.0330 h1         1 VQZ       0.059200
     16 H5          14.3020    13.9570   -45.4090 h1         1 VQZ       0.059200
     17 H6          16.8560    11.2280   -46.0270 ha         1 VQZ       0.134000
     18 H7          16.6480     8.9200   -45.1630 ha         1 VQZ       0.119000
     19 H8          14.7790     8.3200   -43.6290 ha         1 VQZ       0.119000
     20 H9          13.1420    10.0460   -42.9350 ha         1 VQZ       0.108000
     21 H10         14.6770    12.0230   -41.2290 h1         1 VQZ       0.102033
     22 H11         13.9210    13.2230   -40.1120 h1         1 VQZ       0.102033
     23 H12         12.9210    11.8930   -40.8140 h1         1 VQZ       0.102033
     24 H13         12.2250    12.1700   -43.3760 hn         1 VQZ       0.484000
     25 N           13.1200    12.5690   -43.6280 nu         1 VQZ      -0.892100
@<TRIPOS>BOND
     1     1     2 1   
     2     1    13 1   
     3     1    14 1   
     4     2     6 1   
     5     2    15 1   
     6     2    16 1   
     7     3    10 2   
     8     4     6 ar  
     9     4     9 ar  
    10     4    25 1   
    11     5     6 ar  
    12     5     7 ar  
    13     5    17 1   
    14     7     8 ar  
    15     7    18 1   
    16     8     9 ar  
    17     8    19 1   
    18     9    20 1   
    19    10    11 2   
    20    10    12 1   
    21    10    25 1   
    22    12    21 1   
    23    12    22 1   
    24    12    23 1   
    25    24    25 1   
@<TRIPOS>SUBSTRUCTURE
     1 VQZ         1 TEMP              0 ****  ****    0 ROOT
