@<TRIPOS>MOLECULE
VQZ
   25    25     1     0     0
SMALL
abcg2


@<TRIPOS>ATOM
      1 N1          15.8350    13.4180   -46.9330 n8         1 VQZ      -1.005200
      2 C7          14.9930    13.3130   -45.7380 c3         1 VQZ       0.188100
      3 O1          14.9520    14.0420   -42.5030 o          1 VQZ      -0.536500
      4 C1          14.1520    11.6170   -44.0630 ca         1 VQZ       0.225000
      5 C5          15.9180    10.9560   -45.5350 ca         1 VQZ      -0.091000
      6 C6          15.0340    11.9430   -45.1020 ca         1 VQZ      -0.023300
      7 C4          15.9190     9.6840   -44.9700 ca         1 VQZ      -0.098000
      8 C3          15.0170     9.3670   -43.9620 ca         1 VQZ      -0.104000
      9 C2          14.1340    10.3400   -43.5090 ca         1 VQZ      -0.136000
     10 S           13.5990    13.5750   -42.3120 s6         1 VQZ       1.215100
     11 O           12.5270    14.5390   -42.2070 o          1 VQZ      -0.536500
     12 C           13.5700    12.5570   -40.8580 c3         1 VQZ      -0.389100
     13 H1          15.6570    14.3110   -47.3790 hn         1 VQZ       0.398000
     14 H2          16.8160    13.4320   -46.6700 hn         1 VQZ       0.398000
     15 H4          15.2440    14.0560   -44.9750 h1         1 VQZ       0.059200
     16 H5          13.9610    13.5200   -46.0320 h1         1 VQZ       0.059200
     17 H6          16.6010    11.1800   -46.3420 ha         1 VQZ       0.134000
     18 H7          16.6170     8.9380   -45.3280 ha         1 VQZ       0.119000
     19 H8          15.0000     8.3770   -43.5260 ha         1 VQZ       0.119000
     20 H9          13.4220    10.1140   -42.7250 ha         1 VQZ       0.108000
     21 H10         14.3300    11.7850   -40.9560 h1         1 VQZ       0.102033
     22 H11         13.7910    13.2070   -40.0120 h1         1 VQZ       0.102033
     23 H12         12.5770    12.1210   -40.7620 h1         1 VQZ       0.102033
     24 H13         12.2580    12.2890   -43.5330 hn         1 VQZ       0.484000
     25 N           13.2190    12.6110   -43.5990 nu         1 VQZ      -0.892100
@<TRIPOS>BOND
     1     1     2 1   
     2     1    13 1   
     3     1    14 1   
     4     2     6 1   
     5     2    15 1   
     6     2    16 1   
     7     3    10 2   
     8     4     6 ar  
     9     4     9 ar  
    10     4    25 1   
    11     5     6 ar  
    12     5     7 ar  
    13     5    17 1   
    14     7     8 ar  
    15     7    18 1   
    16     8     9 ar  
    17     8    19 1   
    18     9    20 1   
    19    10    11 2   
    20    10    12 1   
    21    10    25 1   
    22    12    21 1   
    23    12    22 1   
    24    12    23 1   
    25    24    25 1   
@<TRIPOS>SUBSTRUCTURE
     1 VQZ         1 TEMP              0 ****  ****    0 ROOT
