@<TRIPOS>MOLECULE
VR0
   32    31     1     0     0
SMALL
bcc


@<TRIPOS>ATOM
      1 C1          89.2350    66.8010    -2.6410 c3         1 VR0       0.113300
      2 NH2         92.8080    70.5470    -4.0850 n2         1 VR0      -0.847100
      3 O1          91.6020    68.1620    -3.0530 o          1 VR0      -0.628100
      4 O           96.8230    73.9010    -9.2520 o          1 VR0      -0.840800
      5 CG          92.9870    72.1290    -7.0780 c3         1 VR0      -0.100400
      6 CD          92.2110    72.6180    -5.8590 c3         1 VR0       0.215800
      7 CB          93.9900    73.1700    -7.5530 c3         1 VR0      -0.048400
      8 NH3         89.3750    68.0380    -3.3720 ns         1 VR0      -0.600900
      9 NE          91.2400    71.6800    -5.3430 nu         1 VR0      -0.860200
     10 NH1         90.5330    69.8130    -4.2380 ns         1 VR0      -0.569400
     11 N           95.4530    71.5550    -8.6700 n8         1 VR0      -0.887800
     12 CZ          91.6180    70.6480    -4.5280 c2         1 VR0       0.681800
     13 C6          90.5740    68.6340    -3.5200 c          1 VR0       0.799100
     14 C           95.5830    74.0170    -9.3050 c          1 VR0       0.903600
     15 CA          94.7280    72.8050    -8.8450 c3         1 VR0       0.015500
     16 H5          88.1820    66.5320    -2.6330 h1         1 VR0       0.036700
     17 H4          89.7910    65.9850    -3.1040 h1         1 VR0       0.036700
     18 H3          89.5670    66.9000    -1.6070 h1         1 VR0       0.036700
     19 HH22        92.8870    69.7770    -3.4360 hn         1 VR0       0.416400
     20 HG2         93.4920    71.1940    -6.8330 hc         1 VR0       0.042700
     21 HG3         92.2810    71.9060    -7.8860 hc         1 VR0       0.042700
     22 HD2         92.9030    72.8660    -5.0540 h1         1 VR0       0.054700
     23 HD3         91.6770    73.5380    -6.1100 h1         1 VR0       0.054700
     24 HB2         93.4740    74.1210    -7.7100 hc         1 VR0       0.039200
     25 HB3         94.7280    73.3520    -6.7600 hc         1 VR0       0.039200
     26 HH33        88.5490    68.4340    -3.7880 hn         1 VR0       0.310500
     27 HE          90.4420    71.5240    -5.9410 hn         1 VR0       0.399800
     28 HH11        89.6260    70.1450    -4.5310 hn         1 VR0       0.301500
     29 H2          95.8710    71.2950    -9.5550 hn         1 VR0       0.325800
     30 H           96.2460    71.7370    -8.0640 hn         1 VR0       0.325800
     31 OXT         94.9420    75.0250    -9.6720 o          1 VR0      -0.840800
     32 HA          93.9670    72.6340    -9.6170 h1         1 VR0       0.032700
@<TRIPOS>BOND
     1     1     8 1   
     2     1    16 1   
     3     1    17 1   
     4     1    18 1   
     5     2    12 2   
     6     2    19 1   
     7     3    13 2   
     8     4    14 1   
     9     5     6 1   
    10     5     7 1   
    11     5    20 1   
    12     5    21 1   
    13     6     9 1   
    14     6    22 1   
    15     6    23 1   
    16     7    15 1   
    17     7    24 1   
    18     7    25 1   
    19     8    13 1   
    20     8    26 1   
    21     9    12 1   
    22     9    27 1   
    23    10    12 1   
    24    10    13 1   
    25    10    28 1   
    26    11    15 1   
    27    11    29 1   
    28    11    30 1   
    29    14    15 1   
    30    14    31 1   
    31    15    32 1   
@<TRIPOS>SUBSTRUCTURE
     1 VR0         1 TEMP              0 ****  ****    0 ROOT
