@<TRIPOS>MOLECULE
VR0
   32    31     1     0     0
SMALL
No Charge or Current Charge


@<TRIPOS>ATOM
      1 C1          89.1130    66.7600    -2.9710 c3         1 VR0       0.113300
      2 NH2         92.8730    70.5590    -3.7390 n2         1 VR0      -0.847100
      3 O1          91.5900    68.1870    -2.8840 o          1 VR0      -0.628100
      4 O           96.3690    74.3660    -9.2370 o          1 VR0      -0.840800
      5 CG          93.0210    72.1820    -6.8700 c3         1 VR0      -0.100400
      6 CD          92.3480    72.7410    -5.5980 c3         1 VR0       0.215800
      7 CB          93.9870    73.1960    -7.5330 c3         1 VR0      -0.048400
      8 NH3         89.4360    68.0410    -3.6020 ns         1 VR0      -0.600900
      9 NE          91.4000    71.7680    -5.0290 nu         1 VR0      -0.860200
     10 NH1         90.6910    69.8290    -4.1810 ns         1 VR0      -0.569400
     11 N           95.5170    71.4970    -8.6010 n8         1 VR0      -0.887800
     12 CZ          91.7460    70.6790    -4.2920 c2         1 VR0       0.681800
     13 C6          90.6520    68.6540    -3.5070 c          1 VR0       0.799100
     14 C           95.2960    73.9210    -9.6350 c          1 VR0       0.903600
     15 CA          94.6360    72.7010    -8.8550 c3         1 VR0       0.015500
     16 H5          88.0740    66.4900    -3.2000 h1         1 VR0       0.036700
     17 H4          89.7820    65.9790    -3.3550 h1         1 VR0       0.036700
     18 H3          89.2340    66.8420    -1.8830 h1         1 VR0       0.036700
     19 HH22        92.8380    69.6640    -3.2250 hn         1 VR0       0.416400
     20 HG2         93.5690    71.2680    -6.6130 hc         1 VR0       0.042700
     21 HG3         92.2450    71.9000    -7.5930 hc         1 VR0       0.042700
     22 HD2         93.1150    73.0150    -4.8590 h1         1 VR0       0.054700
     23 HD3         91.8080    73.6600    -5.8640 h1         1 VR0       0.054700
     24 HB2         93.4260    74.1140    -7.7470 hc         1 VR0       0.039200
     25 HB3         94.7740    73.4720    -6.8200 hc         1 VR0       0.039200
     26 HH33        88.7210    68.5100    -4.1420 hn         1 VR0       0.310500
     27 HE          90.4520    71.7880    -5.3840 hn         1 VR0       0.399800
     28 HH11        89.8460    70.0910    -4.6540 hn         1 VR0       0.301500
     29 H2          95.8780    71.1500    -9.4960 hn         1 VR0       0.325800
     30 H           96.3550    71.8070    -8.0990 hn         1 VR0       0.325800
     31 OXT         94.7750    74.3050   -10.6770 o          1 VR0      -0.840800
     32 HA          93.8170    72.3470    -9.4970 h1         1 VR0       0.032700
@<TRIPOS>BOND
     1     1     8 1   
     2     1    16 1   
     3     1    17 1   
     4     1    18 1   
     5     2    12 2   
     6     2    19 1   
     7     3    13 2   
     8     4    14 1   
     9     5     6 1   
    10     5     7 1   
    11     5    20 1   
    12     5    21 1   
    13     6     9 1   
    14     6    22 1   
    15     6    23 1   
    16     7    15 1   
    17     7    24 1   
    18     7    25 1   
    19     8    13 1   
    20     8    26 1   
    21     9    12 1   
    22     9    27 1   
    23    10    12 1   
    24    10    13 1   
    25    10    28 1   
    26    11    15 1   
    27    11    29 1   
    28    11    30 1   
    29    14    15 1   
    30    14    31 1   
    31    15    32 1   
@<TRIPOS>SUBSTRUCTURE
     1 VR0         1 TEMP              0 ****  ****    0 ROOT
