@<TRIPOS>MOLECULE
VR1
   57    60     1     0     0
SMALL
No Charge or Current Charge


@<TRIPOS>ATOM
      1 C1          -4.4730     6.6030    -3.8360 cc         1 VR1       0.167300
      2 C2          -4.9570     6.8700    -5.0850 cd         1 VR1      -0.196000
      3 C3          -4.6070     5.7750    -5.9020 cd         1 VR1      -0.120000
      4 C4          -3.9220     4.8840    -5.1200 cc         1 VR1       0.131800
      5 O5          -3.8310     5.3860    -3.8410 os         1 VR1      -0.233000
      6 C6          -4.5370     7.3960    -2.5620 c3         1 VR1      -0.110700
      7 C7          -5.4740     6.7710    -1.5100 c3         1 VR1      -0.088100
      8 C8          -3.3380     3.5910    -5.4650 ce         1 VR1      -0.136800
      9 C9          -2.6500     2.6300    -4.7470 cd         1 VR1      -0.143600
     10 C10         -2.1270     1.3570    -5.2820 c          1 VR1       0.718700
     11 N11         -1.5000     0.6420    -4.3070 nc         1 VR1      -0.736100
     12 C12         -1.4910     1.2280    -3.1390 cd         1 VR1       0.712100
     13 S13         -2.2890     2.8010    -3.0300 ss         1 VR1      -0.184800
     14 O14         -2.2310     0.9730    -6.4350 o          1 VR1      -0.510100
     15 N15         -0.9010     0.6170    -2.0850 nu         1 VR1      -0.865400
     16 C16         -0.2120    -0.7040    -2.0780 c3         1 VR1       0.210800
     17 C17         -0.2920    -1.4410    -0.6960 c          1 VR1       0.621100
     18 O18         -0.6830    -0.8890     0.3250 o          1 VR1      -0.547100
     19 N19          0.1650    -2.7260    -0.7060 ns         1 VR1      -0.567300
     20 S20          0.7050    -3.5880     0.6190 sy         1 VR1       1.180300
     21 C21          1.2480    -0.5070    -2.4930 ca         1 VR1      -0.142300
     22 C22          2.1880     0.0310    -1.5840 ca         1 VR1      -0.062500
     23 C23          3.5320     0.1850    -1.9640 ca         1 VR1      -0.156000
     24 C24          3.9420    -0.1890    -3.2520 ca         1 VR1       0.189000
     25 C25          3.0160    -0.7150    -4.1650 ca         1 VR1      -0.156000
     26 C26          1.6710    -0.8740    -3.7870 ca         1 VR1      -0.062500
     27 F            5.2340    -0.0400    -3.6160 f          1 VR1      -0.164000
     28 O28         -0.3970    -3.6210     1.5870 o          1 VR1      -0.506000
     29 O29          1.2820    -4.8160     0.0630 o          1 VR1      -0.506000
     30 C30          2.0380    -2.5610     1.2690 ca         1 VR1      -0.268500
     31 C31          1.8060    -1.6830     2.3480 ca         1 VR1      -0.017000
     32 C32          2.8380    -0.8500     2.8160 ca         1 VR1      -0.070000
     33 C33          4.1160    -0.8780     2.2090 ca         1 VR1      -0.122200
     34 C34          4.3400    -1.7600     1.1250 ca         1 VR1      -0.070000
     35 C35          3.3090    -2.5940     0.6590 ca         1 VR1      -0.017000
     36 N36          5.2150     0.0160     2.7030 no         1 VR1       0.684200
     37 O37          4.9770     0.7610     3.6640 o          1 VR1      -0.382500
     38 O38          6.3080    -0.0250     2.1230 o          1 VR1      -0.382500
     39 H2          -5.5070     7.7560    -5.3830 ha         1 VR1       0.146000
     40 H3          -4.8360     5.6550    -6.9560 ha         1 VR1       0.147000
     41 H61         -3.5300     7.4850    -2.1370 hc         1 VR1       0.061200
     42 H62         -4.8740     8.4160    -2.7810 hc         1 VR1       0.061200
     43 H71         -6.4970     6.6970    -1.8990 hc         1 VR1       0.042033
     44 H72         -5.4960     7.3850    -0.6020 hc         1 VR1       0.042033
     45 H73         -5.1350     5.7650    -1.2370 hc         1 VR1       0.042033
     46 H81         -3.4840     3.3380    -6.5160 ha         1 VR1       0.218000
     47 HN15        -1.0390     1.0920    -1.1940 hn         1 VR1       0.533000
     48 H16         -0.6980    -1.3810    -2.7950 h1         1 VR1       0.106700
     49 HN19         0.5390    -3.1110    -1.5580 hn         1 VR1       0.351500
     50 H22          1.8820     0.3280    -0.5830 ha         1 VR1       0.124000
     51 H23          4.2550     0.5950    -1.2640 ha         1 VR1       0.141000
     52 H25          3.3410    -1.0000    -5.1620 ha         1 VR1       0.141000
     53 H26          0.9580    -1.2810    -4.5020 ha         1 VR1       0.124000
     54 H31          0.8260    -1.6320     2.8230 ha         1 VR1       0.152500
     55 H32          2.6310    -0.1800     3.6490 ha         1 VR1       0.160000
     56 H34          5.3100    -1.8040     0.6340 ha         1 VR1       0.160000
     57 H35          3.5030    -3.2560    -0.1840 ha         1 VR1       0.152500
@<TRIPOS>BOND
     1     1     2 2   
     2     1     5 1   
     3     1     6 1   
     4     2     3 1   
     5     2    39 1   
     6     3     4 2   
     7     3    40 1   
     8     4     5 1   
     9     4     8 1   
    10     6     7 1   
    11     6    41 1   
    12     6    42 1   
    13     7    43 1   
    14     7    44 1   
    15     7    45 1   
    16     8     9 2   
    17     8    46 1   
    18     9    10 1   
    19     9    13 1   
    20    10    11 1   
    21    10    14 2   
    22    11    12 2   
    23    12    13 1   
    24    12    15 1   
    25    15    16 1   
    26    15    47 1   
    27    16    17 1   
    28    16    21 1   
    29    16    48 1   
    30    17    18 2   
    31    17    19 1   
    32    19    20 1   
    33    19    49 1   
    34    20    28 2   
    35    20    29 2   
    36    20    30 1   
    37    21    22 ar  
    38    21    26 ar  
    39    22    23 ar  
    40    22    50 1   
    41    23    24 ar  
    42    23    51 1   
    43    24    25 ar  
    44    24    27 1   
    45    25    26 ar  
    46    25    52 1   
    47    26    53 1   
    48    30    31 ar  
    49    30    35 ar  
    50    31    32 ar  
    51    31    54 1   
    52    32    33 ar  
    53    32    55 1   
    54    33    34 ar  
    55    33    36 1   
    56    34    35 ar  
    57    34    56 1   
    58    35    57 1   
    59    36    37 1   
    60    36    38 1   
@<TRIPOS>SUBSTRUCTURE
     1 VR1         1 TEMP              0 ****  ****    0 ROOT
