@<TRIPOS>MOLECULE
VR1
   57    60     1     0     0
SMALL
abcg2


@<TRIPOS>ATOM
      1 C1          -4.3130     6.3660    -3.7060 cc         1 VR1       0.167300
      2 C2          -4.5720     6.8810    -4.9410 cd         1 VR1      -0.196000
      3 C3          -4.0140     5.9800    -5.8810 cd         1 VR1      -0.120000
      4 C4          -3.4520     4.9670    -5.1560 cc         1 VR1       0.131800
      5 O5          -3.6360     5.2090    -3.8340 os         1 VR1      -0.233000
      6 C6          -4.6360     6.8290    -2.3350 c3         1 VR1      -0.110700
      7 C7          -5.4490     5.8200    -1.5260 c3         1 VR1      -0.088100
      8 C8          -2.7630     3.7890    -5.5480 ce         1 VR1      -0.136800
      9 C9          -2.2580     2.8400    -4.7420 cd         1 VR1      -0.143600
     10 C10         -1.5520     1.6270    -5.2510 c          1 VR1       0.718700
     11 N11         -1.1310     0.8010    -4.2420 nc         1 VR1      -0.736100
     12 C12         -1.4470     1.2640    -3.0730 cd         1 VR1       0.712100
     13 S13         -2.3130     2.7990    -2.9930 ss         1 VR1      -0.184800
     14 O14         -1.3750     1.4070    -6.4320 o          1 VR1      -0.510100
     15 N15         -1.1570     0.6390    -1.9410 nu         1 VR1      -0.865400
     16 C16         -0.4240    -0.5990    -1.9430 c3         1 VR1       0.210800
     17 C17         -0.5240    -1.2200    -0.5590 c          1 VR1       0.621100
     18 O18         -0.7290    -0.5710     0.4380 o          1 VR1      -0.547100
     19 N19         -0.2430    -2.5610    -0.5380 ns         1 VR1      -0.567300
     20 S20          0.3760    -3.3280     0.8280 sy         1 VR1       1.180300
     21 C21          1.0600    -0.4170    -2.2110 ca         1 VR1      -0.142300
     22 C22          1.7770     0.5650    -1.5340 ca         1 VR1      -0.062500
     23 C23          3.1380     0.7150    -1.7400 ca         1 VR1      -0.156000
     24 C24          3.7710    -0.1390    -2.6250 ca         1 VR1       0.189000
     25 C25          3.0900    -1.1280    -3.3070 ca         1 VR1      -0.156000
     26 C26          1.7250    -1.2590    -3.0930 ca         1 VR1      -0.062500
     27 F            5.0890    -0.0040    -2.8240 f          1 VR1      -0.164000
     28 O28         -0.5320    -3.1560     1.9350 o          1 VR1      -0.506000
     29 O29          0.7420    -4.6470     0.3610 o          1 VR1      -0.506000
     30 C30          1.8410    -2.3700     1.1060 ca         1 VR1      -0.268500
     31 C31          1.8750    -1.4450     2.1350 ca         1 VR1      -0.017000
     32 C32          3.0070    -0.6600     2.2920 ca         1 VR1      -0.070000
     33 C33          4.0570    -0.8190     1.4050 ca         1 VR1      -0.122200
     34 C34          4.0270    -1.7490     0.3770 ca         1 VR1      -0.070000
     35 C35          2.9050    -2.5400     0.2290 ca         1 VR1      -0.017000
     36 N36          5.2350     0.0340     1.5460 no         1 VR1       0.684200
     37 O37          5.3430     0.6820     2.5580 o          1 VR1      -0.382500
     38 O38          6.0300     0.0440     0.6380 o          1 VR1      -0.382500
     39 H2          -5.1010     7.7980    -5.1450 ha         1 VR1       0.146000
     40 H3          -4.0240     6.0590    -6.9560 ha         1 VR1       0.147000
     41 H61         -3.7100     7.0660    -1.8010 hc         1 VR1       0.061200
     42 H62         -5.1860     7.7660    -2.4270 hc         1 VR1       0.061200
     43 H71         -6.3850     5.5740    -2.0290 hc         1 VR1       0.042033
     44 H72         -5.6920     6.2340    -0.5490 hc         1 VR1       0.042033
     45 H73         -4.8980     4.8940    -1.3650 hc         1 VR1       0.042033
     46 H81         -2.6390     3.6490    -6.6150 ha         1 VR1       0.218000
     47 HN15        -1.4020     1.0510    -1.0510 hn         1 VR1       0.533000
     48 H16         -0.8520    -1.2710    -2.6920 h1         1 VR1       0.106700
     49 HN19        -0.0980    -3.0570    -1.4110 hn         1 VR1       0.351500
     50 H22          1.2800     1.2310    -0.8410 ha         1 VR1       0.124000
     51 H23          3.6970     1.4810    -1.2200 ha         1 VR1       0.141000
     52 H25          3.6100    -1.7780    -3.9970 ha         1 VR1       0.141000
     53 H26          1.1790    -2.0240    -3.6330 ha         1 VR1       0.124000
     54 H31          1.0430    -1.3220     2.8120 ha         1 VR1       0.152500
     55 H32          3.0450     0.0680     3.0880 ha         1 VR1       0.160000
     56 H34          4.8600    -1.8700    -0.3000 ha         1 VR1       0.160000
     57 H35          2.8730    -3.2700    -0.5680 ha         1 VR1       0.152500
@<TRIPOS>BOND
     1     1     2 2   
     2     1     5 1   
     3     1     6 1   
     4     2     3 1   
     5     2    39 1   
     6     3     4 2   
     7     3    40 1   
     8     4     5 1   
     9     4     8 1   
    10     6     7 1   
    11     6    41 1   
    12     6    42 1   
    13     7    43 1   
    14     7    44 1   
    15     7    45 1   
    16     8     9 2   
    17     8    46 1   
    18     9    10 1   
    19     9    13 1   
    20    10    11 1   
    21    10    14 2   
    22    11    12 2   
    23    12    13 1   
    24    12    15 1   
    25    15    16 1   
    26    15    47 1   
    27    16    17 1   
    28    16    21 1   
    29    16    48 1   
    30    17    18 2   
    31    17    19 1   
    32    19    20 1   
    33    19    49 1   
    34    20    28 2   
    35    20    29 2   
    36    20    30 1   
    37    21    22 ar  
    38    21    26 ar  
    39    22    23 ar  
    40    22    50 1   
    41    23    24 ar  
    42    23    51 1   
    43    24    25 ar  
    44    24    27 1   
    45    25    26 ar  
    46    25    52 1   
    47    26    53 1   
    48    30    31 ar  
    49    30    35 ar  
    50    31    32 ar  
    51    31    54 1   
    52    32    33 ar  
    53    32    55 1   
    54    33    34 ar  
    55    33    36 1   
    56    34    35 ar  
    57    34    56 1   
    58    35    57 1   
    59    36    37 1   
    60    36    38 1   
@<TRIPOS>SUBSTRUCTURE
     1 VR1         1 TEMP              0 ****  ****    0 ROOT
