@<TRIPOS>MOLECULE
VR3
   55    58     1     0     0
SMALL
abcg2


@<TRIPOS>ATOM
      1 C1          -3.0200     4.2880    14.0500 c6         1 VR3      -0.072400
      2 C2          -4.1080     4.3540    15.0990 c6         1 VR3       0.218300
      3 C3          -5.1300     5.4240    14.7450 c6         1 VR3      -0.076200
      4 C4          -4.4650     6.7620    14.5340 c2         1 VR3      -0.118400
      5 C5          -3.2930     6.8060    13.5690 c6         1 VR3       0.004200
      6 C6          -4.9220     7.8390    15.1710 c2         1 VR3      -0.200200
      7 C7          -2.5230     8.1420    13.7220 c6         1 VR3      -0.046700
      8 C8          -4.3900     9.2210    14.9930 c6         1 VR3      -0.040200
      9 C9          -3.4690     9.3530    13.7850 c6         1 VR3      -0.042700
     10 C10         -2.3400     5.6460    13.9310 c6         1 VR3      -0.070400
     11 C11         -1.4090     8.3090    12.6760 c6         1 VR3      -0.069400
     12 C12         -2.6500    10.6300    13.8730 c5         1 VR3      -0.062700
     13 C13         -1.6450    10.8120    12.7300 c5         1 VR3      -0.049000
     14 C14         -0.6690     9.6430    12.7770 c6         1 VR3      -0.060400
     15 C15         -2.3070    10.9030    11.3510 c3         1 VR3      -0.078100
     16 C16         -1.0640    12.1820    13.0910 c5         1 VR3      -0.072400
     17 C17         -3.3710    11.9750    13.9540 c5         1 VR3      -0.071400
     18 C18         -2.2840    13.0070    13.5590 c5         1 VR3      -0.077400
     19 C           -3.8260     6.6210    12.1390 c3         1 VR3      -0.080100
     20 O25         -4.7020     3.0270    15.1370 os         1 VR3      -0.576700
     21 S22         -5.7650     2.6750    16.2710 s6         1 VR3       1.396800
     22 O20         -7.0960     3.0450    15.8400 o          1 VR3      -0.573000
     23 O21         -5.2780     3.2000    17.5310 o          1 VR3      -0.573000
     24 N19         -5.6560     1.0490    16.1440 n8         1 VR3      -1.019100
     25 H1          -3.4530     3.9880    13.0910 hc         1 VR3       0.059200
     26 H2          -2.2810     3.5310    14.3200 hc         1 VR3       0.059200
     27 H3          -3.6630     4.5670    16.0760 h1         1 VR3       0.069700
     28 H4          -5.8850     5.5260    15.5280 hc         1 VR3       0.067200
     29 H5          -5.6530     5.1090    13.8350 hc         1 VR3       0.067200
     30 H6          -5.7470     7.7210    15.8690 ha         1 VR3       0.175000
     31 H7          -2.0280     8.1040    14.7050 hc         1 VR3       0.045700
     32 H8          -3.8520     9.5220    15.9020 hc         1 VR3       0.049700
     33 H9          -5.2260     9.9230    14.9110 hc         1 VR3       0.049700
     34 H10         -4.0870     9.3810    12.8800 hc         1 VR3       0.055700
     35 H11         -1.5450     5.5720    13.1870 hc         1 VR3       0.046200
     36 H12         -1.8530     5.8810    14.8830 hc         1 VR3       0.046200
     37 H13         -1.8200     8.2080    11.6690 hc         1 VR3       0.039700
     38 H14         -0.6870     7.4960    12.7840 hc         1 VR3       0.039700
     39 H15         -2.0420    10.5440    14.7880 hc         1 VR3       0.043700
     40 H16          0.0700     9.7150    11.9720 hc         1 VR3       0.039700
     41 H17         -0.1080     9.6830    13.7180 hc         1 VR3       0.039700
     42 H18         -3.0060    11.7390    11.2770 hc         1 VR3       0.032367
     43 H19         -1.5420    11.0600    10.5870 hc         1 VR3       0.032367
     44 H20         -2.8580    10.0040    11.0740 hc         1 VR3       0.032367
     45 H21         -0.3470    12.0670    13.9090 hc         1 VR3       0.042200
     46 H22         -0.5300    12.6510    12.2610 hc         1 VR3       0.042200
     47 H23         -3.7800    12.1660    14.9480 hc         1 VR3       0.041700
     48 H24         -4.2150    12.0050    13.2590 hc         1 VR3       0.041700
     49 H25         -2.0230    13.6550    14.3960 hc         1 VR3       0.039700
     50 H26         -2.6420    13.6610    12.7640 hc         1 VR3       0.039700
     51 H27         -4.3720     7.5040    11.8030 hc         1 VR3       0.036033
     52 H28         -3.0190     6.4360    11.4280 hc         1 VR3       0.036033
     53 H29         -4.5100     5.7760    12.0630 hc         1 VR3       0.036033
     54 H30         -4.8550     0.6510    16.6220 hn         1 VR3       0.483000
     55 H31         -6.5170     0.5890    16.4190 hn         1 VR3       0.483000
@<TRIPOS>BOND
     1     1     2 1   
     2     1    10 1   
     3     1    25 1   
     4     1    26 1   
     5     2     3 1   
     6     2    20 1   
     7     2    27 1   
     8     3     4 1   
     9     3    28 1   
    10     3    29 1   
    11     4     5 1   
    12     4     6 2   
    13     5     7 1   
    14     5    10 1   
    15     5    19 1   
    16     6     8 1   
    17     6    30 1   
    18     7     9 1   
    19     7    11 1   
    20     7    31 1   
    21     8     9 1   
    22     8    32 1   
    23     8    33 1   
    24     9    12 1   
    25     9    34 1   
    26    10    35 1   
    27    10    36 1   
    28    11    14 1   
    29    11    37 1   
    30    11    38 1   
    31    12    13 1   
    32    12    17 1   
    33    12    39 1   
    34    13    14 1   
    35    13    15 1   
    36    13    16 1   
    37    14    40 1   
    38    14    41 1   
    39    15    42 1   
    40    15    43 1   
    41    15    44 1   
    42    16    18 1   
    43    16    45 1   
    44    16    46 1   
    45    17    18 1   
    46    17    47 1   
    47    17    48 1   
    48    18    49 1   
    49    18    50 1   
    50    19    51 1   
    51    19    52 1   
    52    19    53 1   
    53    20    21 1   
    54    21    22 2   
    55    21    23 2   
    56    21    24 1   
    57    24    54 1   
    58    24    55 1   
@<TRIPOS>SUBSTRUCTURE
     1 VR3         1 TEMP              0 ****  ****    0 ROOT
