@<TRIPOS>MOLECULE
VR3
   55    58     1     0     0
SMALL
No Charge or Current Charge


@<TRIPOS>ATOM
      1 C1          -3.1320     4.2370    14.1850 c6         1 VR3      -0.072400
      2 C2          -4.3190     4.3390    15.1670 c6         1 VR3       0.218300
      3 C3          -5.3050     5.3950    14.6230 c6         1 VR3      -0.076200
      4 C4          -4.6480     6.7620    14.4010 c2         1 VR3      -0.118400
      5 C5          -3.3400     6.7720    13.5750 c6         1 VR3       0.004200
      6 C6          -5.2230     7.8770    14.8860 c2         1 VR3      -0.200200
      7 C7          -2.5730     8.1450    13.7820 c6         1 VR3      -0.046700
      8 C8          -4.6710     9.2810    14.7150 c6         1 VR3      -0.040200
      9 C9          -3.5380     9.3760    13.6600 c6         1 VR3      -0.042700
     10 C10         -2.4090     5.5990    14.0430 c6         1 VR3      -0.070400
     11 C11         -1.2980     8.3030    12.8690 c6         1 VR3      -0.069400
     12 C12         -2.7390    10.7010    13.8380 c5         1 VR3      -0.062700
     13 C13         -1.5590    10.8590    12.8400 c5         1 VR3      -0.049000
     14 C14         -0.5800     9.6700    13.0540 c6         1 VR3      -0.060400
     15 C15         -1.9500    10.9300    11.3220 c3         1 VR3      -0.078100
     16 C16         -1.0300    12.2300    13.3580 c5         1 VR3      -0.072400
     17 C17         -3.4960    12.0470    13.6710 c5         1 VR3      -0.071400
     18 C18         -2.3330    13.0870    13.5190 c5         1 VR3      -0.077400
     19 C           -3.7570     6.5570    12.0770 c3         1 VR3      -0.080100
     20 O25         -4.9790     3.0640    15.2300 os         1 VR3      -0.576700
     21 S22         -5.1840     2.3810    16.6910 s6         1 VR3       1.396800
     22 O20         -5.8450     3.3050    17.6100 o          1 VR3      -0.573000
     23 O21         -3.9880     1.6270    17.0500 o          1 VR3      -0.573000
     24 N19         -6.2650     1.2960    16.2030 n8         1 VR3      -1.019100
     25 H1          -3.4780     3.8790    13.2070 hc         1 VR3       0.059200
     26 H2          -2.4210     3.4860    14.5530 hc         1 VR3       0.059200
     27 H3          -3.9500     4.6480    16.1580 h1         1 VR3       0.069700
     28 H4          -6.1480     5.4870    15.3210 hc         1 VR3       0.067200
     29 H5          -5.7400     5.0360    13.6810 hc         1 VR3       0.067200
     30 H6          -6.1550     7.8150    15.4510 ha         1 VR3       0.175000
     31 H7          -2.2070     8.1540    14.8190 hc         1 VR3       0.045700
     32 H8          -4.3080     9.6240    15.6940 hc         1 VR3       0.049700
     33 H9          -5.4870     9.9620    14.4360 hc         1 VR3       0.049700
     34 H10         -4.0000     9.3790    12.6650 hc         1 VR3       0.055700
     35 H11         -1.5700     5.4750    13.3460 hc         1 VR3       0.046200
     36 H12         -1.9600     5.8500    15.0140 hc         1 VR3       0.046200
     37 H13         -1.5550     8.1790    11.8120 hc         1 VR3       0.039700
     38 H14         -0.5750     7.5090    13.0940 hc         1 VR3       0.039700
     39 H15         -2.3490    10.6430    14.8630 hc         1 VR3       0.043700
     40 H16          0.2720     9.7460    12.3650 hc         1 VR3       0.039700
     41 H17         -0.1570     9.7150    14.0680 hc         1 VR3       0.039700
     42 H18         -2.5580    11.8080    11.0800 hc         1 VR3       0.032367
     43 H19         -1.0530    10.9900    10.6940 hc         1 VR3       0.032367
     44 H20         -2.5190    10.0540    10.9930 hc         1 VR3       0.032367
     45 H21         -0.5170    12.1250    14.3220 hc         1 VR3       0.042200
     46 H22         -0.3120    12.6910    12.6710 hc         1 VR3       0.042200
     47 H23         -4.1330    12.2690    14.5340 hc         1 VR3       0.041700
     48 H24         -4.1500    12.0410    12.7900 hc         1 VR3       0.041700
     49 H25         -2.2630    13.7480    14.3900 hc         1 VR3       0.039700
     50 H26         -2.4990    13.7320    12.6480 hc         1 VR3       0.039700
     51 H27         -4.3630     7.3860    11.6970 hc         1 VR3       0.036033
     52 H28         -2.8890     6.4480    11.4190 hc         1 VR3       0.036033
     53 H29         -4.3540     5.6490    11.9410 hc         1 VR3       0.036033
     54 H30         -6.2070     1.5190    15.2130 hn         1 VR3       0.483000
     55 H31         -5.6930     0.4630    16.2950 hn         1 VR3       0.483000
@<TRIPOS>BOND
     1     1     2 1   
     2     1    10 1   
     3     1    25 1   
     4     1    26 1   
     5     2     3 1   
     6     2    20 1   
     7     2    27 1   
     8     3     4 1   
     9     3    28 1   
    10     3    29 1   
    11     4     5 1   
    12     4     6 2   
    13     5     7 1   
    14     5    10 1   
    15     5    19 1   
    16     6     8 1   
    17     6    30 1   
    18     7     9 1   
    19     7    11 1   
    20     7    31 1   
    21     8     9 1   
    22     8    32 1   
    23     8    33 1   
    24     9    12 1   
    25     9    34 1   
    26    10    35 1   
    27    10    36 1   
    28    11    14 1   
    29    11    37 1   
    30    11    38 1   
    31    12    13 1   
    32    12    17 1   
    33    12    39 1   
    34    13    14 1   
    35    13    15 1   
    36    13    16 1   
    37    14    40 1   
    38    14    41 1   
    39    15    42 1   
    40    15    43 1   
    41    15    44 1   
    42    16    18 1   
    43    16    45 1   
    44    16    46 1   
    45    17    18 1   
    46    17    47 1   
    47    17    48 1   
    48    18    49 1   
    49    18    50 1   
    50    19    51 1   
    51    19    52 1   
    52    19    53 1   
    53    20    21 1   
    54    21    22 2   
    55    21    23 2   
    56    21    24 1   
    57    24    54 1   
    58    24    55 1   
@<TRIPOS>SUBSTRUCTURE
     1 VR3         1 TEMP              0 ****  ****    0 ROOT
