@<TRIPOS>MOLECULE
VR4
   77    79     1     0     0
SMALL
abcg2


@<TRIPOS>ATOM
      1 C33         20.1170    23.5700    -3.3200 c3         1 VR4       0.229900
      2 C34         20.4180    25.0310    -3.1270 ca         1 VR4      -0.094300
      3 C36         21.7470    26.8460    -2.2500 ca         1 VR4      -0.110500
      4 C38         19.8970    27.3220    -3.7080 ca         1 VR4      -0.110500
      5 C02         20.4480    21.4960    -2.2220 c          1 VR4       0.640100
      6 C35         21.4820    25.4820    -2.3480 ca         1 VR4      -0.096000
      7 C37         20.9630    27.7710    -2.9280 ca         1 VR4      -0.106000
      8 C39         19.6260    25.9630    -3.8000 ca         1 VR4      -0.096000
      9 O32         20.7770    22.8050    -2.2970 os         1 VR4      -0.464100
     10 O01         19.6490    20.9480    -2.9640 o          1 VR4      -0.548000
     11 N03         21.1090    20.8900    -1.2160 ns         1 VR4      -0.485900
     12 C04         21.1100    19.4520    -1.0610 c3         1 VR4       0.061700
     13 C05         19.8690    18.9820    -0.2850 c          1 VR4       0.590100
     14 O27         19.4320    19.6130     0.6750 o          1 VR4      -0.602100
     15 C28         22.3650    19.0090    -0.3020 c3         1 VR4      -0.086400
     16 C29         23.6670    19.1240    -1.0980 c3         1 VR4      -0.065700
     17 C30         24.8700    18.9740    -0.1630 c3         1 VR4      -0.089600
     18 C31         23.7370    18.0970    -2.2310 c3         1 VR4      -0.089600
     19 N06         19.3520    17.8200    -0.7200 ns         1 VR4      -0.491900
     20 C07         18.1850    17.1850    -0.1300 c3         1 VR4       0.124700
     21 C08         17.1520    16.9270    -1.2300 c3         1 VR4      -0.084400
     22 C09         16.5980    18.2110    -1.8420 c5         1 VR4      -0.151700
     23 C13         15.7150    19.0530    -0.9030 c5         1 VR4      -0.090400
     24 C12         14.5850    19.5980    -1.7960 c5         1 VR4       0.103000
     25 N11         14.6040    18.6960    -2.9390 ns         1 VR4      -0.512900
     26 C10         15.6930    17.9150    -3.0370 c          1 VR4       0.563000
     27 O14         15.9390    17.1320    -3.9530 o          1 VR4      -0.567000
     28 C15         18.5920    15.8880     0.6140 c3         1 VR4       0.075300
     29 O26         19.8140    16.1490     1.2980 oh         1 VR4      -0.654000
     30 C16         17.4670    15.4440     1.5580 c          1 VR4       0.562100
     31 O25         16.3770    15.0770     1.1170 o          1 VR4      -0.596100
     32 N17         17.7610    15.4730     2.8680 ns         1 VR4      -0.499900
     33 C18         16.7860    15.1810     3.9010 c3         1 VR4       0.147300
     34 C19         16.0590    16.4050     4.4330 ca         1 VR4      -0.111300
     35 C20         15.1150    16.2270     5.4480 ca         1 VR4      -0.103500
     36 C21         14.3980    17.3080     5.9440 ca         1 VR4      -0.106000
     37 C22         14.6110    18.5870     5.4330 ca         1 VR4      -0.110000
     38 C23         15.5220    18.7620     4.3980 ca         1 VR4      -0.106000
     39 C24         16.2420    17.6780     3.9010 ca         1 VR4      -0.103500
     40 H27         19.0430    23.3900    -3.2730 h1         1 VR4       0.060200
     41 H28         20.4730    23.2270    -4.2950 h1         1 VR4       0.060200
     42 H30         22.5530    27.1870    -1.6100 ha         1 VR4       0.113500
     43 H32         19.2870    28.0290    -4.2550 ha         1 VR4       0.113500
     44 H29         22.1080    24.7700    -1.8300 ha         1 VR4       0.118500
     45 H31         21.1800    28.8290    -2.8550 ha         1 VR4       0.114000
     46 H33         18.7800    25.6230    -4.3860 ha         1 VR4       0.118500
     47 H34         21.7030    21.4510    -0.6270 hn         1 VR4       0.338500
     48 H1          21.0650    19.0020    -2.0540 h1         1 VR4       0.073700
     49 H18         22.4320    19.6280     0.5990 hc         1 VR4       0.063200
     50 H19         22.2310    17.9830     0.0490 hc         1 VR4       0.063200
     51 H20         23.7220    20.1220    -1.5440 hc         1 VR4       0.048700
     52 H21         24.8550    19.7250     0.6290 hc         1 VR4       0.035700
     53 H22         24.8720    17.9870     0.3090 hc         1 VR4       0.035700
     54 H23         25.8030    19.0710    -0.7220 hc         1 VR4       0.035700
     55 H24         24.6770    18.1860    -2.7790 hc         1 VR4       0.035700
     56 H25         23.6640    17.0820    -1.8270 hc         1 VR4       0.035700
     57 H26         22.9210    18.2210    -2.9440 hc         1 VR4       0.035700
     58 H35         19.6940    17.4410    -1.5920 hn         1 VR4       0.317500
     59 H2          17.8100    17.8930     0.6080 h1         1 VR4       0.090700
     60 H3          16.3420    16.3180    -0.8350 hc         1 VR4       0.075200
     61 H4          17.6310    16.3370    -2.0170 hc         1 VR4       0.075200
     62 H5          17.4350    18.7960    -2.2380 hc         1 VR4       0.090700
     63 H8          15.3000    18.4000    -0.1350 hc         1 VR4       0.064200
     64 H9          16.2750    19.8560    -0.4300 hc         1 VR4       0.064200
     65 H6          14.7760    20.6250    -2.1200 h1         1 VR4       0.044200
     66 H7          13.6140    19.5790    -1.3020 h1         1 VR4       0.044200
     67 H36         13.9080    18.7280    -3.6700 hn         1 VR4       0.327500
     68 H10         18.7520    15.0860    -0.1150 h1         1 VR4       0.064700
     69 H38         20.1140    15.3340     1.7210 ho         1 VR4       0.446000
     70 H37         18.6330    15.8960     3.1490 hn         1 VR4       0.324500
     71 H11         16.0630    14.4810     3.4840 h1         1 VR4       0.069200
     72 H12         17.3130    14.7030     4.7270 h1         1 VR4       0.069200
     73 H13         14.9730    15.2410     5.8770 ha         1 VR4       0.113000
     74 H14         13.6800    17.1570     6.7410 ha         1 VR4       0.114000
     75 H15         14.0310    19.4240     5.8010 ha         1 VR4       0.114000
     76 H16         15.6880    19.7480     3.9770 ha         1 VR4       0.114000
     77 H17         16.9880    17.8410     3.1360 ha         1 VR4       0.113000
@<TRIPOS>BOND
     1     1     2 1   
     2     1     9 1   
     3     1    40 1   
     4     1    41 1   
     5     2     6 ar  
     6     2     8 ar  
     7     3     6 ar  
     8     3     7 ar  
     9     3    42 1   
    10     4     7 ar  
    11     4     8 ar  
    12     4    43 1   
    13     5     9 1   
    14     5    10 2   
    15     5    11 1   
    16     6    44 1   
    17     7    45 1   
    18     8    46 1   
    19    11    12 1   
    20    11    47 1   
    21    12    13 1   
    22    12    15 1   
    23    12    48 1   
    24    13    14 2   
    25    13    19 1   
    26    15    16 1   
    27    15    49 1   
    28    15    50 1   
    29    16    17 1   
    30    16    18 1   
    31    16    51 1   
    32    17    52 1   
    33    17    53 1   
    34    17    54 1   
    35    18    55 1   
    36    18    56 1   
    37    18    57 1   
    38    19    20 1   
    39    19    58 1   
    40    20    21 1   
    41    20    28 1   
    42    20    59 1   
    43    21    22 1   
    44    21    60 1   
    45    21    61 1   
    46    22    23 1   
    47    22    26 1   
    48    22    62 1   
    49    23    24 1   
    50    23    63 1   
    51    23    64 1   
    52    24    25 1   
    53    24    65 1   
    54    24    66 1   
    55    25    26 1   
    56    25    67 1   
    57    26    27 2   
    58    28    29 1   
    59    28    30 1   
    60    28    68 1   
    61    29    69 1   
    62    30    31 2   
    63    30    32 1   
    64    32    33 1   
    65    32    70 1   
    66    33    34 1   
    67    33    71 1   
    68    33    72 1   
    69    34    35 ar  
    70    34    39 ar  
    71    35    36 ar  
    72    35    73 1   
    73    36    37 ar  
    74    36    74 1   
    75    37    38 ar  
    76    37    75 1   
    77    38    39 ar  
    78    38    76 1   
    79    39    77 1   
@<TRIPOS>SUBSTRUCTURE
     1 VR4         1 TEMP              0 ****  ****    0 ROOT
