@<TRIPOS>MOLECULE
VR4
   77    79     1     0     0
SMALL
No Charge or Current Charge


@<TRIPOS>ATOM
      1 C33         21.1410    23.8130    -3.6510 c3         1 VR4       0.229900
      2 C34         21.2020    25.2460    -3.1380 ca         1 VR4      -0.094300
      3 C36         22.5020    27.1800    -2.4080 ca         1 VR4      -0.110500
      4 C38         20.0730    27.2960    -2.4430 ca         1 VR4      -0.110500
      5 C02         21.0330    21.5930    -2.7710 c          1 VR4       0.640100
      6 C35         22.4460    25.8570    -2.8800 ca         1 VR4      -0.096000
      7 C37         21.3160    27.9000    -2.1900 ca         1 VR4      -0.106000
      8 C39         20.0150    25.9730    -2.9150 ca         1 VR4      -0.096000
      9 O32         21.0880    22.9280    -2.5200 os         1 VR4      -0.464100
     10 O01         21.0080    21.0740    -3.8750 o          1 VR4      -0.548000
     11 N03         20.9780    20.9270    -1.5810 ns         1 VR4      -0.485900
     12 C04         20.8990    19.4580    -1.4200 c3         1 VR4       0.061700
     13 C05         19.8940    19.1020    -0.2850 c          1 VR4       0.590100
     14 O27         19.4960    19.9200     0.5360 o          1 VR4      -0.602100
     15 C28         22.3030    18.8520    -1.1280 c3         1 VR4      -0.086400
     16 C29         23.3420    18.9470    -2.2810 c3         1 VR4      -0.065700
     17 C30         24.7460    18.5230    -1.7920 c3         1 VR4      -0.089600
     18 C31         22.9290    18.1220    -3.5240 c3         1 VR4      -0.089600
     19 N06         19.4700    17.7880    -0.2790 ns         1 VR4      -0.491900
     20 C07         18.5620    17.1970     0.7160 c3         1 VR4       0.124700
     21 C08         17.2500    16.7290     0.0290 c3         1 VR4      -0.084400
     22 C09         16.4020    17.8600    -0.6180 c5         1 VR4      -0.151700
     23 C13         15.9200    18.9580     0.3750 c5         1 VR4      -0.090400
     24 C12         14.6770    19.5300    -0.3560 c5         1 VR4       0.103000
     25 N11         14.1530    18.3210    -0.9840 ns         1 VR4      -0.512900
     26 C10         15.0890    17.3560    -1.2340 c          1 VR4       0.563000
     27 O14         14.8140    16.2550    -1.6820 o          1 VR4      -0.567000
     28 C15         19.2740    16.0710     1.5310 c3         1 VR4       0.075300
     29 O26         20.5110    16.5720     2.1100 oh         1 VR4      -0.654000
     30 C16         18.3210    15.4860     2.6140 c          1 VR4       0.562100
     31 O25         17.9220    14.3290     2.5900 o          1 VR4      -0.596100
     32 N17         17.9450    16.3720     3.6000 ns         1 VR4      -0.499900
     33 C18         16.8450    16.1530     4.5370 c3         1 VR4       0.147300
     34 C19         15.5570    16.7370     3.9730 ca         1 VR4      -0.111300
     35 C20         14.7840    15.9950     3.0580 ca         1 VR4      -0.103500
     36 C21         13.6150    16.5460     2.5060 ca         1 VR4      -0.106000
     37 C22         13.2090    17.8420     2.8680 ca         1 VR4      -0.110000
     38 C23         13.9740    18.5860     3.7820 ca         1 VR4      -0.106000
     39 C24         15.1470    18.0360     4.3300 ca         1 VR4      -0.103500
     40 H27         20.2530    23.6880    -4.2860 h1         1 VR4       0.060200
     41 H28         22.0260    23.6060    -4.2660 h1         1 VR4       0.060200
     42 H30         23.4650    27.6460    -2.2110 ha         1 VR4       0.113500
     43 H32         19.1530    27.8530    -2.2720 ha         1 VR4       0.113500
     44 H29         23.3690    25.3050    -3.0440 ha         1 VR4       0.118500
     45 H31         21.3600    28.9240    -1.8240 ha         1 VR4       0.114000
     46 H33         19.0480    25.5120    -3.1060 ha         1 VR4       0.118500
     47 H34         20.9550    21.5080    -0.7530 hn         1 VR4       0.338500
     48 H1          20.4920    19.0190    -2.3390 h1         1 VR4       0.073700
     49 H18         22.7080    19.3490    -0.2380 hc         1 VR4       0.063200
     50 H19         22.1880    17.7950    -0.8570 hc         1 VR4       0.063200
     51 H20         23.4190    19.9970    -2.5890 hc         1 VR4       0.048700
     52 H21         25.0690    19.1460    -0.9500 hc         1 VR4       0.035700
     53 H22         24.7470    17.4760    -1.4660 hc         1 VR4       0.035700
     54 H23         25.4860    18.6330    -2.5940 hc         1 VR4       0.035700
     55 H24         23.6890    18.2040    -4.3110 hc         1 VR4       0.035700
     56 H25         22.8160    17.0610    -3.2690 hc         1 VR4       0.035700
     57 H26         21.9820    18.4760    -3.9440 hc         1 VR4       0.035700
     58 H35         19.8600    17.1810    -0.9890 hn         1 VR4       0.317500
     59 H2          18.2870    17.9780     1.4370 h1         1 VR4       0.090700
     60 H3          16.6190    16.2120     0.7610 hc         1 VR4       0.075200
     61 H4          17.5010    15.9770    -0.7300 hc         1 VR4       0.075200
     62 H5          16.9720    18.3350    -1.4250 hc         1 VR4       0.090700
     63 H8          15.6320    18.5210     1.3380 hc         1 VR4       0.064200
     64 H9          16.6770    19.7240     0.5770 hc         1 VR4       0.064200
     65 H6          14.9610    20.2780    -1.1080 h1         1 VR4       0.044200
     66 H7          13.9650    19.9900     0.3430 h1         1 VR4       0.044200
     67 H36         13.1910    18.1540    -1.2540 hn         1 VR4       0.327500
     68 H10         19.5000    15.2490     0.8380 h1         1 VR4       0.064700
     69 H38         20.9830    15.8090     2.5150 ho         1 VR4       0.446000
     70 H37         18.3760    17.2890     3.5720 hn         1 VR4       0.324500
     71 H11         16.7210    15.0780     4.7290 h1         1 VR4       0.069200
     72 H12         17.0900    16.6360     5.4930 h1         1 VR4       0.069200
     73 H13         15.0940    14.9940     2.7670 ha         1 VR4       0.113000
     74 H14         13.0250    15.9710     1.7950 ha         1 VR4       0.114000
     75 H15         12.3050    18.2690     2.4400 ha         1 VR4       0.114000
     76 H16         13.6630    19.5900     4.0610 ha         1 VR4       0.114000
     77 H17         15.7390    18.6240     5.0290 ha         1 VR4       0.113000
@<TRIPOS>BOND
     1     1     2 1   
     2     1     9 1   
     3     1    40 1   
     4     1    41 1   
     5     2     6 ar  
     6     2     8 ar  
     7     3     6 ar  
     8     3     7 ar  
     9     3    42 1   
    10     4     7 ar  
    11     4     8 ar  
    12     4    43 1   
    13     5     9 1   
    14     5    10 2   
    15     5    11 1   
    16     6    44 1   
    17     7    45 1   
    18     8    46 1   
    19    11    12 1   
    20    11    47 1   
    21    12    13 1   
    22    12    15 1   
    23    12    48 1   
    24    13    14 2   
    25    13    19 1   
    26    15    16 1   
    27    15    49 1   
    28    15    50 1   
    29    16    17 1   
    30    16    18 1   
    31    16    51 1   
    32    17    52 1   
    33    17    53 1   
    34    17    54 1   
    35    18    55 1   
    36    18    56 1   
    37    18    57 1   
    38    19    20 1   
    39    19    58 1   
    40    20    21 1   
    41    20    28 1   
    42    20    59 1   
    43    21    22 1   
    44    21    60 1   
    45    21    61 1   
    46    22    23 1   
    47    22    26 1   
    48    22    62 1   
    49    23    24 1   
    50    23    63 1   
    51    23    64 1   
    52    24    25 1   
    53    24    65 1   
    54    24    66 1   
    55    25    26 1   
    56    25    67 1   
    57    26    27 2   
    58    28    29 1   
    59    28    30 1   
    60    28    68 1   
    61    29    69 1   
    62    30    31 2   
    63    30    32 1   
    64    32    33 1   
    65    32    70 1   
    66    33    34 1   
    67    33    71 1   
    68    33    72 1   
    69    34    35 ar  
    70    34    39 ar  
    71    35    36 ar  
    72    35    73 1   
    73    36    37 ar  
    74    36    74 1   
    75    37    38 ar  
    76    37    75 1   
    77    38    39 ar  
    78    38    76 1   
    79    39    77 1   
@<TRIPOS>SUBSTRUCTURE
     1 VR4         1 TEMP              0 ****  ****    0 ROOT
