@<TRIPOS>MOLECULE
VR6
   30    31     1     0     0
SMALL
No Charge or Current Charge


@<TRIPOS>ATOM
      1 N1          19.4630     2.6530    18.5960 n7         1 VR6      -0.852400
      2 C7          19.5690     3.9530    17.8860 c3         1 VR6       0.131500
      3 C8          18.2140     4.5770    17.6360 cc         1 VR6       0.083300
      4 C9          17.2360     4.2640    16.7320 cd         1 VR6      -0.171000
      5 O1          17.8060     5.6450    18.4060 os         1 VR6      -0.254000
      6 C1          19.8800     3.2540    25.2630 ca         1 VR6      -0.204000
      7 C5          18.9340     1.3290    20.6700 c3         1 VR6       0.169600
      8 C6          18.9130     2.7180    19.9760 c3         1 VR6       0.124800
      9 C4          17.9880     2.2960    24.1380 ca         1 VR6      -0.183000
     10 C3          18.8180     2.0450    23.0340 ca         1 VR6       0.579300
     11 C2          20.6460     2.9600    24.1240 ca         1 VR6       0.374900
     12 C11         16.5470     5.9960    17.9680 cc         1 VR6       0.130900
     13 C10         16.1750     5.1680    16.9440 cd         1 VR6      -0.187000
     14 O           18.2550     1.4180    21.9450 os         1 VR6      -0.472300
     15 C           18.5190     2.9160    25.2790 ca         1 VR6      -0.046000
     16 N           20.1320     2.3620    23.0260 nb         1 VR6      -0.749000
     17 H1          18.8690     2.0290    18.0350 hn         1 VR6       0.407000
     18 H3          20.0650     3.8170    16.9150 h1         1 VR6       0.072200
     19 H4          20.1830     4.6610    18.4600 h1         1 VR6       0.072200
     20 H5          17.2750     3.4680    15.9950 ha         1 VR6       0.139000
     21 H7          18.4110     0.6100    20.0260 h1         1 VR6       0.066700
     22 H8          19.9680     0.9760    20.7850 h1         1 VR6       0.066700
     23 H9          19.4960     3.4250    20.5810 h1         1 VR6       0.052700
     24 H10         17.8750     3.0800    19.9570 h1         1 VR6       0.052700
     25 H11         16.9410     2.0120    24.0990 ha         1 VR6       0.136000
     26 H12         21.7060     3.2090    24.0890 h4         1 VR6       0.019100
     27 H13         16.0490     6.8240    18.4540 h4         1 VR6       0.052100
     28 H14         15.2360     5.2080    16.4020 ha         1 VR6       0.142000
     29 H15         17.8960     3.1260    26.1460 ha         1 VR6       0.120000
     30 H6          20.3430     3.7360    26.1200 ha         1 VR6       0.125000
@<TRIPOS>BOND
     1     1     2 1   
     2     1     8 1   
     3     1    17 1   
     4     2     3 1   
     5     2    18 1   
     6     2    19 1   
     7     3     4 2   
     8     3     5 1   
     9     4    13 1   
    10     4    20 1   
    11     5    12 1   
    12     6    11 ar  
    13     6    15 ar  
    14     6    30 1   
    15     7     8 1   
    16     7    14 1   
    17     7    21 1   
    18     7    22 1   
    19     8    23 1   
    20     8    24 1   
    21     9    10 ar  
    22     9    15 ar  
    23     9    25 1   
    24    10    14 1   
    25    10    16 ar  
    26    11    16 ar  
    27    11    26 1   
    28    12    13 2   
    29    12    27 1   
    30    13    28 1   
    31    15    29 1   
@<TRIPOS>SUBSTRUCTURE
     1 VR6         1 TEMP              0 ****  ****    0 ROOT
