@<TRIPOS>MOLECULE
VR6
   30    31     1     0     0
SMALL
abcg2


@<TRIPOS>ATOM
      1 N1          19.3880     2.5770    18.6660 n7         1 VR6      -0.852400
      2 C7          19.5100     3.8190    17.8910 c3         1 VR6       0.131500
      3 C8          18.2300     4.5140    17.5630 cc         1 VR6       0.083300
      4 C9          17.3720     4.4370    16.5100 cd         1 VR6      -0.171000
      5 O1          17.7270     5.3920    18.4910 os         1 VR6      -0.254000
      6 C1          19.9380     3.2550    25.2490 ca         1 VR6      -0.204000
      7 C5          18.8920     1.4420    20.7560 c3         1 VR6       0.169600
      8 C6          18.7790     2.7470    19.9820 c3         1 VR6       0.124800
      9 C4          18.0410     2.1860    24.2460 ca         1 VR6      -0.183000
     10 C3          18.7940     2.0980    23.0660 ca         1 VR6       0.579300
     11 C2          20.5910     3.1160    24.0390 ca         1 VR6       0.374900
     12 C11         16.5400     5.8650    18.0090 cc         1 VR6       0.130900
     13 C10         16.2750     5.3120    16.8000 cd         1 VR6      -0.187000
     14 O           18.1900     1.5080    22.0100 os         1 VR6      -0.472300
     15 C           18.6290     2.7740    25.3460 ca         1 VR6      -0.046000
     16 N           20.0330     2.5490    22.9580 nb         1 VR6      -0.749000
     17 H1          18.8430     1.9100    18.1270 hn         1 VR6       0.407000
     18 H3          20.0130     3.5760    16.9530 h1         1 VR6       0.072200
     19 H4          20.1580     4.5020    18.4460 h1         1 VR6       0.072200
     20 H5          17.5070     3.8290    15.6300 ha         1 VR6       0.139000
     21 H7          18.4000     0.6360    20.2100 h1         1 VR6       0.066700
     22 H8          19.9350     1.1790    20.9220 h1         1 VR6       0.066700
     23 H9          19.3180     3.5350    20.5110 h1         1 VR6       0.052700
     24 H10         17.7220     3.0430    19.9390 h1         1 VR6       0.052700
     25 H11         17.0320     1.7970    24.2710 ha         1 VR6       0.136000
     26 H12         21.6070     3.4740    23.9150 h4         1 VR6       0.019100
     27 H13         16.0240     6.5760    18.6320 h4         1 VR6       0.052100
     28 H14         15.4110     5.5050    16.1840 ha         1 VR6       0.142000
     29 H15         18.0780     2.8600    26.2740 ha         1 VR6       0.120000
     30 H6          20.4320     3.7240    26.0890 ha         1 VR6       0.125000
@<TRIPOS>BOND
     1     1     2 1   
     2     1     8 1   
     3     1    17 1   
     4     2     3 1   
     5     2    18 1   
     6     2    19 1   
     7     3     4 2   
     8     3     5 1   
     9     4    13 1   
    10     4    20 1   
    11     5    12 1   
    12     6    11 ar  
    13     6    15 ar  
    14     6    30 1   
    15     7     8 1   
    16     7    14 1   
    17     7    21 1   
    18     7    22 1   
    19     8    23 1   
    20     8    24 1   
    21     9    10 ar  
    22     9    15 ar  
    23     9    25 1   
    24    10    14 1   
    25    10    16 ar  
    26    11    16 ar  
    27    11    26 1   
    28    12    13 2   
    29    12    27 1   
    30    13    28 1   
    31    15    29 1   
@<TRIPOS>SUBSTRUCTURE
     1 VR6         1 TEMP              0 ****  ****    0 ROOT
