@<TRIPOS>MOLECULE
VR7
   22    23     1     0     0
SMALL
abcg2


@<TRIPOS>ATOM
      1 CAA        -68.8610   -34.2520   -40.7870 ca         1 VR7      -0.042000
      2 CAB        -67.7890   -34.0520   -39.9200 ca         1 VR7      -0.164600
      3 CAC        -68.0900   -33.7880   -38.5730 ca         1 VR7       0.166100
      4 CAD        -69.4240   -33.7370   -38.1610 ca         1 VR7      -0.254000
      5 CAE        -70.4600   -33.9490   -39.0490 ca         1 VR7      -0.078000
      6 CAF        -70.1960   -34.2130   -40.3920 ca         1 VR7      -0.102000
      7 CAH        -66.3720   -34.1560   -40.5010 c          1 VR7       0.721600
      8 CAK        -71.2870   -34.4230   -41.3540 cc         1 VR7      -0.012000
      9 CAL        -72.5710   -34.9550   -41.0110 cc         1 VR7      -0.121000
     10 CAM        -73.4110   -35.0560   -42.0730 cd         1 VR7      -0.262000
     11 CAO        -71.2150   -34.1350   -42.6900 cd         1 VR7      -0.235000
     12 OAG        -67.1080   -33.5670   -37.6790 oh         1 VR7      -0.483100
     13 OAI        -66.3000   -34.1410   -41.7470 o          1 VR7      -0.712000
     14 OAJ        -65.4240   -34.2600   -39.7050 o          1 VR7      -0.712000
     15 SAN        -72.6690   -34.5030   -43.5150 ss         1 VR7       0.135000
     16 H1         -68.6230   -34.4650   -41.8210 ha         1 VR7       0.137000
     17 H2         -69.6550   -33.5200   -37.1230 ha         1 VR7       0.085000
     18 H3         -71.4790   -33.8890   -38.6880 ha         1 VR7       0.086000
     19 H4         -72.8460   -35.2700   -40.0140 ha         1 VR7       0.127000
     20 H5         -74.4210   -35.4360   -42.0850 h4         1 VR7       0.134000
     21 H6         -70.3850   -33.7020   -43.2290 h4         1 VR7       0.161000
     22 H7         -67.4970   -33.3910   -36.8150 ho         1 VR7       0.426000
@<TRIPOS>BOND
     1     1     2 ar  
     2     1     6 ar  
     3     1    16 1   
     4     2     3 ar  
     5     2     7 1   
     6     3     4 ar  
     7     3    12 1   
     8     4     5 ar  
     9     4    17 1   
    10     5     6 ar  
    11     5    18 1   
    12     6     8 1   
    13     7    13 1   
    14     7    14 1   
    15     8     9 1   
    16     8    11 2   
    17     9    10 2   
    18     9    19 1   
    19    10    15 1   
    20    10    20 1   
    21    11    15 1   
    22    11    21 1   
    23    12    22 1   
@<TRIPOS>SUBSTRUCTURE
     1 VR7         1 TEMP              0 ****  ****    0 ROOT
