@<TRIPOS>MOLECULE
VR7
   22    23     1     0     0
SMALL
No Charge or Current Charge


@<TRIPOS>ATOM
      1 CAA        -68.8480   -34.1870   -40.8530 ca         1 VR7      -0.042000
      2 CAB        -67.7880   -33.9460   -39.9530 ca         1 VR7      -0.164600
      3 CAC        -68.0650   -33.7770   -38.5860 ca         1 VR7       0.166100
      4 CAD        -69.3860   -33.8600   -38.1270 ca         1 VR7      -0.254000
      5 CAE        -70.4370   -34.1100   -39.0240 ca         1 VR7      -0.078000
      6 CAF        -70.1910   -34.2760   -40.4060 ca         1 VR7      -0.102000
      7 CAH        -66.3850   -33.8640   -40.4770 c          1 VR7       0.721600
      8 CAK        -71.3160   -34.5330   -41.3330 cc         1 VR7      -0.012000
      9 CAL        -72.6970   -34.6470   -41.0010 cc         1 VR7      -0.121000
     10 CAM        -73.5180   -34.8880   -42.0700 cd         1 VR7      -0.262000
     11 CAO        -71.0930   -34.6910   -42.6830 cd         1 VR7      -0.235000
     12 OAG        -67.0740   -33.5080   -37.6900 oh         1 VR7      -0.483100
     13 OAI        -66.1410   -33.0110   -41.3190 o          1 VR7      -0.712000
     14 OAJ        -65.5820   -34.7190   -40.1290 o          1 VR7      -0.712000
     15 SAN        -72.5960   -34.9870   -43.5740 ss         1 VR7       0.135000
     16 H1         -68.5970   -34.3070   -41.9020 ha         1 VR7       0.137000
     17 H2         -69.6080   -33.7290   -37.0710 ha         1 VR7       0.085000
     18 H3         -71.4450   -34.1660   -38.6260 ha         1 VR7       0.086000
     19 H4         -73.0710   -34.5530   -39.9880 ha         1 VR7       0.127000
     20 H5         -74.5940   -35.0130   -42.0760 h4         1 VR7       0.134000
     21 H6         -70.1670   -34.6590   -43.2400 h4         1 VR7       0.161000
     22 H7         -67.4830   -33.4300   -36.8040 ho         1 VR7       0.426000
@<TRIPOS>BOND
     1     1     2 ar  
     2     1     6 ar  
     3     1    16 1   
     4     2     3 ar  
     5     2     7 1   
     6     3     4 ar  
     7     3    12 1   
     8     4     5 ar  
     9     4    17 1   
    10     5     6 ar  
    11     5    18 1   
    12     6     8 1   
    13     7    13 1   
    14     7    14 1   
    15     8     9 1   
    16     8    11 2   
    17     9    10 2   
    18     9    19 1   
    19    10    15 1   
    20    10    20 1   
    21    11    15 1   
    22    11    21 1   
    23    12    22 1   
@<TRIPOS>SUBSTRUCTURE
     1 VR7         1 TEMP              0 ****  ****    0 ROOT
