@<TRIPOS>MOLECULE
VR9
   48    50     1     0     0
SMALL
abcg2


@<TRIPOS>ATOM
      1 C10         47.8210   -12.8130    19.2090 ca         1 VR9      -0.130000
      2 C13         47.1280   -13.3290    23.7140 cc         1 VR9       0.183100
      3 C15         45.6180   -11.7550    24.7340 cd         1 VR9      -0.096000
      4 C17         47.4530   -13.8240    25.0110 cc         1 VR9      -0.130000
      5 C20         48.7960   -15.7080    27.8120 ch         1 VR9       0.314700
      6 C11         48.1730   -12.9720    20.5480 ca         1 VR9      -0.065000
      7 C12         47.3870   -13.7340    21.3930 ca         1 VR9       0.053100
      8 C14         46.2350   -12.3080    23.5670 cd         1 VR9      -0.206000
      9 C16         45.8970   -12.2140    25.9860 cc         1 VR9      -0.153000
     10 C18         48.2990   -14.8140    25.4820 cd         1 VR9      -0.177000
     11 C19         48.1460   -14.8300    26.9080 cd         1 VR9      -0.036700
     12 C1          43.6650   -18.8840    21.9960 c3         1 VR9       0.077300
     13 C2          45.1610   -18.2340    23.8010 c          1 VR9       0.601100
     14 C21         47.2270   -13.8510    27.2840 cc         1 VR9      -0.185100
     15 C3          45.8580   -17.1800    24.6500 c3         1 VR9      -0.151400
     16 C4          45.3000   -17.1390    26.0940 c3         1 VR9      -0.083100
     17 C5          43.7610   -16.5080    22.6320 c3         1 VR9       0.107000
     18 C6          44.3290   -15.7770    21.4180 c3         1 VR9       0.140600
     19 C7          46.2150   -14.3570    20.9250 ca         1 VR9       0.147100
     20 C8          45.8610   -14.2060    19.5870 ca         1 VR9      -0.187000
     21 C9          46.6690   -13.4340    18.7550 ca         1 VR9       0.163000
     22 N1          44.2810   -17.8630    22.8290 n          1 VR9      -0.414800
     23 N2          46.8070   -13.2420    26.1290 na         1 VR9       0.152100
     24 N3          49.3400   -16.4170    28.5450 n1         1 VR9      -0.461000
     25 O1          45.4200   -19.4320    24.0520 o          1 VR9      -0.614100
     26 O2          45.5090   -15.0680    21.8360 os         1 VR9      -0.344100
     27 O3          47.7980   -13.9500    22.6970 os         1 VR9      -0.226200
     28 CL1         46.2050   -13.2540    17.0740 cl         1 VR9      -0.200000
     29 H12         48.4280   -12.2110    18.5440 ha         1 VR9       0.141000
     30 H15         44.9110   -10.9500    24.6230 ha         1 VR9       0.128000
     31 H13         49.0660   -12.5050    20.9430 ha         1 VR9       0.140000
     32 H14         45.9950   -11.9180    22.5780 ha         1 VR9       0.135000
     33 H16         45.4580   -11.8410    26.9070 h4         1 VR9       0.148000
     34 H17         48.9390   -15.4430    24.8830 ha         1 VR9       0.228000
     35 H2          44.1150   -19.8470    22.2160 h1         1 VR9       0.045033
     36 H3          42.5940   -18.9340    22.2000 h1         1 VR9       0.045033
     37 H1          43.7940   -18.6370    20.9410 h1         1 VR9       0.045033
     38 H18         46.8490   -13.5650    28.2620 h4         1 VR9       0.236000
     39 H19         46.9190   -17.4720    24.6850 hc         1 VR9       0.069200
     40 H4          45.8090   -16.2020    24.2090 hc         1 VR9       0.069200
     41 H6          45.8440   -16.4040    26.7080 hc         1 VR9       0.041033
     42 H20         44.2220   -16.8650    26.0870 hc         1 VR9       0.041033
     43 H5          45.4080   -18.1000    26.5660 hc         1 VR9       0.041033
     44 H8          43.9560   -15.9110    23.5210 h1         1 VR9       0.066200
     45 H7          42.6750   -16.5700    22.5310 h1         1 VR9       0.066200
     46 H10         43.5890   -15.0710    21.0230 h1         1 VR9       0.050200
     47 H9          44.6010   -16.4780    20.6250 h1         1 VR9       0.050200
     48 H11         44.9730   -14.6730    19.1910 ha         1 VR9       0.137000
@<TRIPOS>BOND
     1     1     6 ar  
     2     1    21 ar  
     3     1    29 1   
     4     2     4 1   
     5     2     8 2   
     6     2    27 1   
     7     3     8 1   
     8     3     9 2   
     9     3    30 1   
    10     4    10 2   
    11     4    23 1   
    12     5    11 1   
    13     5    24 3   
    14     6     7 ar  
    15     6    31 1   
    16     7    19 ar  
    17     7    27 1   
    18     8    32 1   
    19     9    23 1   
    20     9    33 1   
    21    10    11 1   
    22    10    34 1   
    23    11    14 2   
    24    12    22 1   
    25    12    35 1   
    26    12    36 1   
    27    12    37 1   
    28    13    15 1   
    29    13    22 1   
    30    13    25 2   
    31    14    23 1   
    32    14    38 1   
    33    15    16 1   
    34    15    39 1   
    35    15    40 1   
    36    16    41 1   
    37    16    42 1   
    38    16    43 1   
    39    17    18 1   
    40    17    22 1   
    41    17    44 1   
    42    17    45 1   
    43    18    26 1   
    44    18    46 1   
    45    18    47 1   
    46    19    20 ar  
    47    19    26 1   
    48    20    21 ar  
    49    20    48 1   
    50    21    28 1   
@<TRIPOS>SUBSTRUCTURE
     1 VR9         1 TEMP              0 ****  ****    0 ROOT
