@<TRIPOS>MOLECULE
VR9
   48    50     1     0     0
SMALL
No Charge or Current Charge


@<TRIPOS>ATOM
      1 C10         48.0990   -13.4420    18.9590 ca         1 VR9      -0.130000
      2 C13         47.1300   -12.9230    23.5460 cc         1 VR9       0.183100
      3 C15         45.0510   -12.0270    24.3980 cd         1 VR9      -0.096000
      4 C17         47.2300   -13.6330    24.7600 cc         1 VR9      -0.130000
      5 C20         48.5310   -15.6800    27.4760 ch         1 VR9       0.314700
      6 C11         48.4120   -12.9980    20.2540 ca         1 VR9      -0.065000
      7 C12         47.7060   -13.4730    21.3770 ca         1 VR9       0.053100
      8 C14         46.0570   -12.0850    23.3520 cd         1 VR9      -0.206000
      9 C16         45.1270   -12.7620    25.5910 cc         1 VR9      -0.153000
     10 C18         48.2040   -14.4450    25.2710 cd         1 VR9      -0.177000
     11 C19         47.7960   -14.8490    26.5840 cd         1 VR9      -0.036700
     12 C1          43.3850   -17.9970    22.0200 c3         1 VR9       0.077300
     13 C2          45.2920   -18.1400    23.6370 c          1 VR9       0.601100
     14 C21         46.5590   -14.2850    26.8620 cc         1 VR9      -0.185100
     15 C3          46.1730   -17.5420    24.7480 c3         1 VR9      -0.151400
     16 C4          45.4940   -17.6930    26.1280 c3         1 VR9      -0.083100
     17 C5          44.0170   -15.9330    23.3380 c3         1 VR9       0.107000
     18 C6          44.5350   -14.9870    22.2340 c3         1 VR9       0.140600
     19 C7          46.6690   -14.4420    21.1790 ca         1 VR9       0.147100
     20 C8          46.3750   -14.8850    19.8720 ca         1 VR9      -0.187000
     21 C9          47.0800   -14.3830    18.7710 ca         1 VR9       0.163000
     22 N1          44.2570   -17.3740    23.0430 n          1 VR9      -0.414800
     23 N2          46.2630   -13.5700    25.7150 na         1 VR9       0.152100
     24 N3          49.1160   -16.3800    28.2050 n1         1 VR9      -0.461000
     25 O1          45.4540   -19.3100    23.3100 o          1 VR9      -0.614100
     26 O2          45.9760   -15.0170    22.2250 os         1 VR9      -0.344100
     27 O3          48.1190   -12.9430    22.5980 os         1 VR9      -0.226200
     28 Cl1         46.6980   -14.9530    17.1530 cl         1 VR9      -0.200000
     29 H12         48.6490   -13.0600    18.1030 ha         1 VR9       0.141000
     30 H15         44.1960   -11.3730    24.2530 ha         1 VR9       0.128000
     31 H13         49.2070   -12.2690    20.3920 ha         1 VR9       0.140000
     32 H14         45.9650   -11.4890    22.4510 ha         1 VR9       0.135000
     33 H16         44.4100   -12.7460    26.4020 h4         1 VR9       0.148000
     34 H17         49.1340   -14.7150    24.7740 ha         1 VR9       0.228000
     35 H2          43.9870   -18.2890    21.1500 h1         1 VR9       0.045033
     36 H3          42.9010   -18.8890    22.4390 h1         1 VR9       0.045033
     37 H1          42.6060   -17.2960    21.6930 h1         1 VR9       0.045033
     38 H18         45.9150   -14.3290    27.7320 h4         1 VR9       0.236000
     39 H19         47.1330   -18.0700    24.7720 hc         1 VR9       0.069200
     40 H4          46.3450   -16.4770    24.5750 hc         1 VR9       0.069200
     41 H6          46.1400   -17.3050    26.9230 hc         1 VR9       0.041033
     42 H20         44.5440   -17.1460    26.1610 hc         1 VR9       0.041033
     43 H5          45.2890   -18.7490    26.3440 hc         1 VR9       0.041033
     44 H8          44.4360   -15.6360    24.3050 h1         1 VR9       0.066200
     45 H7          42.9330   -15.7840    23.4260 h1         1 VR9       0.066200
     46 H10         44.1770   -13.9690    22.4310 h1         1 VR9       0.050200
     47 H9          44.1160   -15.3070    21.2730 h1         1 VR9       0.050200
     48 H11         45.6160   -15.6430    19.7060 ha         1 VR9       0.137000
@<TRIPOS>BOND
     1     1     6 ar  
     2     1    21 ar  
     3     1    29 1   
     4     2     4 1   
     5     2     8 2   
     6     2    27 1   
     7     3     8 1   
     8     3     9 2   
     9     3    30 1   
    10     4    10 2   
    11     4    23 1   
    12     5    11 1   
    13     5    24 3   
    14     6     7 ar  
    15     6    31 1   
    16     7    19 ar  
    17     7    27 1   
    18     8    32 1   
    19     9    23 1   
    20     9    33 1   
    21    10    11 1   
    22    10    34 1   
    23    11    14 2   
    24    12    22 1   
    25    12    35 1   
    26    12    36 1   
    27    12    37 1   
    28    13    15 1   
    29    13    22 1   
    30    13    25 2   
    31    14    23 1   
    32    14    38 1   
    33    15    16 1   
    34    15    39 1   
    35    15    40 1   
    36    16    41 1   
    37    16    42 1   
    38    16    43 1   
    39    17    18 1   
    40    17    22 1   
    41    17    44 1   
    42    17    45 1   
    43    18    26 1   
    44    18    46 1   
    45    18    47 1   
    46    19    20 ar  
    47    19    26 1   
    48    20    21 ar  
    49    20    48 1   
    50    21    28 1   
@<TRIPOS>SUBSTRUCTURE
     1 VR9         1 TEMP              0 ****  ****    0 ROOT
