@<TRIPOS>MOLECULE
VRB
   83    86     1     0     0
SMALL
abcg2


@<TRIPOS>ATOM
      1 C01          6.7630    -2.0900     3.0590 c3         1 VRB      -0.086100
      2 C02          6.6780    -2.8970     1.7620 c3         1 VRB      -0.027200
      3 C03          6.3880    -2.0420     0.5720 c2         1 VRB      -0.105400
      4 C04          7.2370    -1.2640    -0.1090 ce         1 VRB      -0.181400
      5 C05          8.6930    -1.0410     0.0950 c3         1 VRB      -0.025900
      6 C06          6.4940    -0.5920    -1.2010 c          1 VRB       0.556200
      7 O07          6.9470     0.1780    -2.0360 o          1 VRB      -0.562000
      8 N08          5.2120    -1.0030    -1.0960 ns         1 VRB      -0.502900
      9 C09          5.0090    -1.9330    -0.0170 c5         1 VRB       0.132900
     10 C10          3.9400    -1.4530     0.9790 c3         1 VRB       0.003900
     11 C11          2.6180    -1.2330     0.3270 cc         1 VRB      -0.217300
     12 C12          1.6180    -2.1180    -0.0040 cd         1 VRB      -0.129300
     13 C13          1.6000    -3.5850     0.2840 c3         1 VRB      -0.009800
     14 C14          0.6090    -1.3850    -0.7000 cd         1 VRB      -0.122300
     15 C15          1.0420    -0.0780    -0.7760 cc         1 VRB      -0.161300
     16 C16          0.4040     1.1480    -1.3550 c3         1 VRB       0.060200
     17 C17         -0.6130     1.7550    -0.4430 cc         1 VRB      -0.165300
     18 C18         -0.5520     2.8520     0.3910 cd         1 VRB      -0.120300
     19 C19          0.5560     3.8540     0.4690 c3         1 VRB       0.009900
     20 C20          0.3850     4.9870    -0.5410 c3         1 VRB      -0.200400
     21 C21          1.4600     6.0860    -0.5050 c          1 VRB       0.714000
     22 O22          1.4030     6.9380    -1.4170 o          1 VRB      -0.750500
     23 O23          2.2930     6.0560     0.4230 o          1 VRB      -0.750500
     24 C24         -1.7740     2.8920     1.1170 cd         1 VRB      -0.133300
     25 C25         -2.5430     1.8160     0.7000 cc         1 VRB      -0.148800
     26 N26         -1.8200     1.1610    -0.2670 na         1 VRB      -0.098000
     27 C27         -3.8140     1.3420     1.1690 ce         1 VRB      -0.161200
     28 C28         -4.6440     0.4890     0.5340 cd         1 VRB       0.036600
     29 N29         -4.5180     0.0240    -0.7720 ns         1 VRB      -0.408100
     30 C30         -5.5350    -0.8470    -1.0750 c          1 VRB       0.579200
     31 O31         -5.7500    -1.3280    -2.1730 o          1 VRB      -0.525000
     32 C32         -6.3110    -1.0190     0.1660 cc         1 VRB      -0.135400
     33 C33         -5.8040    -0.1880     1.0990 cd         1 VRB      -0.062200
     34 C34         -6.2440    -0.0000     2.5090 c3         1 VRB      -0.032900
     35 C35         -7.4600    -1.9600     0.2410 c3         1 VRB      -0.013200
     36 C36         -8.7350    -1.3780    -0.3700 c3         1 VRB      -0.085100
     37 C37         -2.1570     3.9220     2.1250 c3         1 VRB      -0.005800
     38 N38          2.2500    -0.0080    -0.1490 na         1 VRB      -0.101000
     39 C39         -0.6650    -1.9670    -1.2330 c3         1 VRB       0.001900
     40 C40         -1.6660    -2.3700    -0.1470 c3         1 VRB      -0.210400
     41 C41         -2.9390    -3.0870    -0.6400 c          1 VRB       0.715000
     42 O42         -3.8670    -3.1760     0.1870 o          1 VRB      -0.742500
     43 O43         -2.9250    -3.5510    -1.7980 o          1 VRB      -0.742500
     44 H1           5.8260    -1.5760     3.2750 hc         1 VRB       0.036033
     45 H2           6.9840    -2.7440     3.9030 hc         1 VRB       0.036033
     46 H3           7.5490    -1.3370     3.0010 hc         1 VRB       0.036033
     47 H4           7.6230    -3.4230     1.6080 hc         1 VRB       0.044200
     48 H5           5.9110    -3.6690     1.8580 hc         1 VRB       0.044200
     49 H6           9.2530    -1.2250    -0.8230 hc         1 VRB       0.041700
     50 H7           8.8960    -0.0100     0.3900 hc         1 VRB       0.041700
     51 H8           9.0940    -1.6920     0.8700 hc         1 VRB       0.041700
     52 H9           4.4920    -0.7470    -1.7520 hn         1 VRB       0.349500
     53 H10          4.7010    -2.9120    -0.4070 h1         1 VRB       0.072700
     54 H11          3.8420    -2.1960     1.7730 hc         1 VRB       0.054200
     55 H12          4.2870    -0.5310     1.4530 hc         1 VRB       0.054200
     56 H13          0.8790    -3.8470     1.0620 hc         1 VRB       0.028700
     57 H14          1.3270    -4.1610    -0.6020 hc         1 VRB       0.028700
     58 H15          2.5730    -3.9480     0.6160 hc         1 VRB       0.028700
     59 H16          1.1710     1.8930    -1.5790 hc         1 VRB       0.063200
     60 H17         -0.0600     0.9010    -2.3150 hc         1 VRB       0.063200
     61 H18          0.6080     4.2690     1.4780 hc         1 VRB       0.037700
     62 H19          1.5190     3.3650     0.3040 hc         1 VRB       0.037700
     63 H20          0.3430     4.5660    -1.5510 hc         1 VRB       0.019700
     64 H21         -0.5930     5.4590    -0.3940 hc         1 VRB       0.019700
     65 H23         -2.0480     0.2480    -0.6240 hn         1 VRB       0.368000
     66 H26         -5.4600    -0.2950     3.2090 hc         1 VRB       0.036700
     67 H27         -6.4810     1.0450     2.7140 hc         1 VRB       0.036700
     68 H28         -7.1300    -0.5910     2.7330 hc         1 VRB       0.036700
     69 H29         -7.1910    -2.8830    -0.2770 hc         1 VRB       0.058700
     70 H30         -7.6500    -2.2360     1.2800 hc         1 VRB       0.058700
     71 H31         -9.0490    -0.4820     0.1670 hc         1 VRB       0.024033
     72 H32         -8.5850    -1.1070    -1.4150 hc         1 VRB       0.024033
     73 H33         -9.5530    -2.0990    -0.3260 hc         1 VRB       0.024033
     74 H34         -2.2490     4.9120     1.6750 hc         1 VRB       0.026367
     75 H35         -3.1130     3.6950     2.5980 hc         1 VRB       0.026367
     76 H36         -1.4110     4.0050     2.9180 hc         1 VRB       0.026367
     77 H37          2.7970     0.8330    -0.0520 hn         1 VRB       0.348000
     78 H38         -1.1380    -1.2690    -1.9340 hc         1 VRB       0.042200
     79 H39         -0.4380    -2.8520    -1.8330 hc         1 VRB       0.042200
     80 H40         -1.1690    -3.0390     0.5650 hc         1 VRB       0.020700
     81 H41         -1.9590    -1.5050     0.4550 hc         1 VRB       0.020700
     82 H24         -4.1140     1.6700     2.1560 ha         1 VRB       0.181000
     83 H421        -4.0190     0.5180    -1.4950 hn         1 VRB       0.329500
@<TRIPOS>BOND
     1     1     2 1   
     2     1    44 1   
     3     1    45 1   
     4     1    46 1   
     5     2     3 1   
     6     2    47 1   
     7     2    48 1   
     8     3     4 2   
     9     3     9 1   
    10     4     5 1   
    11     4     6 1   
    12     5    49 1   
    13     5    50 1   
    14     5    51 1   
    15     6     7 2   
    16     6     8 1   
    17     8     9 1   
    18     8    52 1   
    19     9    10 1   
    20     9    53 1   
    21    10    11 1   
    22    10    54 1   
    23    10    55 1   
    24    11    12 2   
    25    11    38 1   
    26    12    13 1   
    27    12    14 1   
    28    13    56 1   
    29    13    57 1   
    30    13    58 1   
    31    14    15 2   
    32    14    39 1   
    33    15    16 1   
    34    15    38 1   
    35    16    17 1   
    36    16    59 1   
    37    16    60 1   
    38    17    18 2   
    39    17    26 1   
    40    18    19 1   
    41    18    24 1   
    42    19    20 1   
    43    19    61 1   
    44    19    62 1   
    45    20    21 1   
    46    20    63 1   
    47    20    64 1   
    48    21    22 1   
    49    21    23 1   
    50    24    25 2   
    51    24    37 1   
    52    25    26 1   
    53    25    27 1   
    54    26    65 1   
    55    27    28 2   
    56    27    82 1   
    57    28    29 1   
    58    28    33 1   
    59    29    30 1   
    60    29    83 1   
    61    30    31 2   
    62    30    32 1   
    63    32    33 2   
    64    32    35 1   
    65    33    34 1   
    66    34    66 1   
    67    34    67 1   
    68    34    68 1   
    69    35    36 1   
    70    35    69 1   
    71    35    70 1   
    72    36    71 1   
    73    36    72 1   
    74    36    73 1   
    75    37    74 1   
    76    37    75 1   
    77    37    76 1   
    78    38    77 1   
    79    39    40 1   
    80    39    78 1   
    81    39    79 1   
    82    40    41 1   
    83    40    80 1   
    84    40    81 1   
    85    41    42 1   
    86    41    43 1   
@<TRIPOS>SUBSTRUCTURE
     1 VRB         1 TEMP              0 ****  ****    0 ROOT
