@<TRIPOS>MOLECULE
VRB
   83    86     1     0     0
SMALL
No Charge or Current Charge


@<TRIPOS>ATOM
      1 C01          6.6180    -2.0390     3.3860 c3         1 VRB      -0.086100
      2 C02          6.8550    -2.6970     2.0140 c3         1 VRB      -0.027200
      3 C03          6.6330    -1.7370     0.8600 c2         1 VRB      -0.105400
      4 C04          7.4550    -0.7680     0.4150 ce         1 VRB      -0.181400
      5 C05          8.8360    -0.4160     0.9420 c3         1 VRB      -0.025900
      6 C06          6.8810    -0.0960    -0.7520 c          1 VRB       0.556200
      7 O07          7.3580     0.8140    -1.4110 o          1 VRB      -0.562000
      8 N08          5.6840    -0.6920    -0.9890 ns         1 VRB      -0.502900
      9 C09          5.3530    -1.7370    -0.0010 c5         1 VRB       0.132900
     10 C10          4.0790    -1.4010     0.8090 c3         1 VRB       0.003900
     11 C11          2.8360    -1.3000    -0.0420 cc         1 VRB      -0.217300
     12 C12          2.0980    -2.2910    -0.6390 cd         1 VRB      -0.129300
     13 C13          2.3690    -3.7750    -0.5770 c3         1 VRB      -0.009800
     14 C14          1.0210    -1.6870    -1.3390 cd         1 VRB      -0.122300
     15 C15          1.0890    -0.3270    -1.1620 cc         1 VRB      -0.161300
     16 C16          0.1890     0.7710    -1.6830 c3         1 VRB       0.060200
     17 C17         -0.7710     1.3080    -0.6500 cc         1 VRB      -0.165300
     18 C18         -0.6440     2.3870     0.1860 cd         1 VRB      -0.120300
     19 C19          0.5550     3.3090     0.2750 c3         1 VRB       0.009900
     20 C20          0.4000     4.5710    -0.6040 c3         1 VRB      -0.200400
     21 C21          1.6410     5.4650    -0.4560 c          1 VRB       0.714000
     22 O22          2.5860     5.2700    -1.2050 o          1 VRB      -0.750500
     23 O23          1.6470     6.3030     0.4330 o          1 VRB      -0.750500
     24 C24         -1.8290     2.4890     0.9630 cd         1 VRB      -0.133300
     25 C25         -2.6880     1.4780     0.6040 cc         1 VRB      -0.148800
     26 N26         -2.0340     0.7700    -0.4050 na         1 VRB      -0.098000
     27 C27         -4.0190     1.1910     1.1420 ce         1 VRB      -0.161200
     28 C28         -5.0120     0.2810     0.8490 cd         1 VRB       0.036600
     29 N29         -5.0380    -0.6800    -0.1240 ns         1 VRB      -0.408100
     30 C30         -6.1710    -1.4250    -0.1530 c          1 VRB       0.579200
     31 O31         -6.4320    -2.3360    -0.9230 o          1 VRB      -0.525000
     32 C32         -6.9630    -0.8580     0.9500 cc         1 VRB      -0.135400
     33 C33         -6.2670     0.1760     1.5560 cd         1 VRB      -0.062200
     34 C34         -6.7230     1.0270     2.7170 c3         1 VRB      -0.032900
     35 C35         -8.3280    -1.4230     1.2650 c3         1 VRB      -0.013200
     36 C36         -9.4580    -0.6760     0.5350 c3         1 VRB      -0.085100
     37 C37         -2.1030     3.5390     2.0170 c3         1 VRB      -0.005800
     38 N38          2.2070    -0.0990    -0.3630 na         1 VRB      -0.101000
     39 C39         -0.0390    -2.4250    -2.1230 c3         1 VRB       0.001900
     40 C40         -1.2730    -2.7840    -1.2570 c3         1 VRB      -0.210400
     41 C41         -2.5560    -2.5070    -2.0450 c          1 VRB       0.715000
     42 O42         -3.0320    -1.3850    -1.9620 o          1 VRB      -0.742500
     43 O43         -3.0030    -3.3920    -2.7580 o          1 VRB      -0.742500
     44 H1           5.5900    -1.6690     3.4690 hc         1 VRB       0.036033
     45 H2           6.7870    -2.7640     4.1920 hc         1 VRB       0.036033
     46 H3           7.3020    -1.1950     3.5350 hc         1 VRB       0.036033
     47 H4           7.8780    -3.0920     1.9830 hc         1 VRB       0.044200
     48 H5           6.1920    -3.5640     1.9130 hc         1 VRB       0.044200
     49 H6           9.4680     0.0230     0.1610 hc         1 VRB       0.041700
     50 H7           8.7700     0.3100     1.7610 hc         1 VRB       0.041700
     51 H8           9.3620    -1.2990     1.3230 hc         1 VRB       0.041700
     52 H9           5.0990    -0.3720    -1.7500 hn         1 VRB       0.349500
     53 H10          5.2120    -2.7120    -0.4890 h1         1 VRB       0.072700
     54 H11          3.9240    -2.1660     1.5790 hc         1 VRB       0.054200
     55 H12          4.2320    -0.4600     1.3520 hc         1 VRB       0.054200
     56 H13          1.4510    -4.3350    -0.3660 hc         1 VRB       0.028700
     57 H14          2.7740    -4.1370    -1.5290 hc         1 VRB       0.028700
     58 H15          3.0910    -4.0260     0.2090 hc         1 VRB       0.028700
     59 H16          0.8070     1.5900    -2.0710 hc         1 VRB       0.063200
     60 H17         -0.3790     0.4150    -2.5500 hc         1 VRB       0.063200
     61 H18          0.7230     3.6090     1.3170 hc         1 VRB       0.037700
     62 H19          1.4640     2.7760    -0.0260 hc         1 VRB       0.037700
     63 H20          0.3070     4.2080    -1.6340 hc         1 VRB       0.019700
     64 H21         -0.4940     5.0890    -0.2360 hc         1 VRB       0.019700
     65 H23         -2.4190    -0.0340    -0.9050 hn         1 VRB       0.368000
     66 H26         -6.0850     0.8660     3.5930 hc         1 VRB       0.036700
     67 H27         -6.6840     2.0920     2.4600 hc         1 VRB       0.036700
     68 H28         -7.7540     0.7990     3.0090 hc         1 VRB       0.036700
     69 H29         -8.3700    -2.4850     0.9940 hc         1 VRB       0.058700
     70 H30         -8.5100    -1.3820     2.3460 hc         1 VRB       0.058700
     71 H31         -9.4680     0.3830     0.8200 hc         1 VRB       0.024033
     72 H32         -9.3250    -0.7410    -0.5520 hc         1 VRB       0.024033
     73 H33        -10.4320    -1.1110     0.7900 hc         1 VRB       0.024033
     74 H34         -1.3940     4.3720     1.9720 hc         1 VRB       0.026367
     75 H35         -3.1050     3.9660     1.8950 hc         1 VRB       0.026367
     76 H36         -2.0430     3.1060     3.0230 hc         1 VRB       0.026367
     77 H37          2.5140     0.8170    -0.0540 hn         1 VRB       0.348000
     78 H38         -0.3480    -1.8160    -2.9810 hc         1 VRB       0.042200
     79 H39          0.3730    -3.3420    -2.5620 hc         1 VRB       0.042200
     80 H40         -1.1770    -3.8500    -1.0190 hc         1 VRB       0.020700
     81 H41         -1.2370    -2.1350    -0.3720 hc         1 VRB       0.020700
     82 H24         -4.2770     1.8430     1.9740 ha         1 VRB       0.181000
     83 H421        -4.3020    -0.8610    -0.8030 hn         1 VRB       0.329500
@<TRIPOS>BOND
     1     1     2 1   
     2     1    44 1   
     3     1    45 1   
     4     1    46 1   
     5     2     3 1   
     6     2    47 1   
     7     2    48 1   
     8     3     4 2   
     9     3     9 1   
    10     4     5 1   
    11     4     6 1   
    12     5    49 1   
    13     5    50 1   
    14     5    51 1   
    15     6     7 2   
    16     6     8 1   
    17     8     9 1   
    18     8    52 1   
    19     9    10 1   
    20     9    53 1   
    21    10    11 1   
    22    10    54 1   
    23    10    55 1   
    24    11    12 2   
    25    11    38 1   
    26    12    13 1   
    27    12    14 1   
    28    13    56 1   
    29    13    57 1   
    30    13    58 1   
    31    14    15 2   
    32    14    39 1   
    33    15    16 1   
    34    15    38 1   
    35    16    17 1   
    36    16    59 1   
    37    16    60 1   
    38    17    18 2   
    39    17    26 1   
    40    18    19 1   
    41    18    24 1   
    42    19    20 1   
    43    19    61 1   
    44    19    62 1   
    45    20    21 1   
    46    20    63 1   
    47    20    64 1   
    48    21    22 1   
    49    21    23 1   
    50    24    25 2   
    51    24    37 1   
    52    25    26 1   
    53    25    27 1   
    54    26    65 1   
    55    27    28 2   
    56    27    82 1   
    57    28    29 1   
    58    28    33 1   
    59    29    30 1   
    60    29    83 1   
    61    30    31 2   
    62    30    32 1   
    63    32    33 2   
    64    32    35 1   
    65    33    34 1   
    66    34    66 1   
    67    34    67 1   
    68    34    68 1   
    69    35    36 1   
    70    35    69 1   
    71    35    70 1   
    72    36    71 1   
    73    36    72 1   
    74    36    73 1   
    75    37    74 1   
    76    37    75 1   
    77    37    76 1   
    78    38    77 1   
    79    39    40 1   
    80    39    78 1   
    81    39    79 1   
    82    40    41 1   
    83    40    80 1   
    84    40    81 1   
    85    41    42 1   
    86    41    43 1   
@<TRIPOS>SUBSTRUCTURE
     1 VRB         1 TEMP              0 ****  ****    0 ROOT
