@<TRIPOS>MOLECULE
VRC
   20    20     1     0     0
SMALL
No Charge or Current Charge


@<TRIPOS>ATOM
      1 N1          -2.6760    17.0190   -34.9460 n8         1 VRC      -0.994200
      2 O1           1.1620    14.1040   -34.3460 o          1 VRC      -0.383500
      3 C1          -1.9800    12.1230   -34.9600 ce         1 VRC      -0.249200
      4 C5          -0.2830    13.5300   -36.1920 c6         1 VRC       0.031700
      5 C6          -3.4080    15.7660   -35.2220 c3         1 VRC       0.196000
      6 C4          -1.2640    14.6890   -36.0130 c2         1 VRC      -0.181200
      7 C3          -2.4640    14.5790   -35.3810 ce         1 VRC      -0.138400
      8 C2          -2.9210    13.2670   -34.7990 c          1 VRC       0.554500
      9 O2          -3.9960    13.1200   -34.2310 o          1 VRC      -0.508100
     10 C           -0.7840    12.2210   -35.5850 c2         1 VRC      -0.174200
     11 N            1.1060    13.9090   -35.5680 no         1 VRC       0.572000
     12 O            2.0750    13.9940   -36.3320 o          1 VRC      -0.383500
     13 H1          -3.3550    17.7730   -34.7810 hn         1 VRC       0.406000
     14 H2          -2.1950    16.9270   -34.0430 hn         1 VRC       0.406000
     15 H5          -0.0750    13.3840   -37.2610 h1         1 VRC       0.110700
     16 H6          -3.9890    15.8910   -36.1470 h1         1 VRC       0.044200
     17 H7          -4.1140    15.5940   -34.3980 h1         1 VRC       0.044200
     18 H8          -0.9450    15.6450   -36.4350 ha         1 VRC       0.217000
     19 H9          -0.1230    11.3550   -35.6820 ha         1 VRC       0.217000
     20 H4          -2.3190    11.1780   -34.5360 ha         1 VRC       0.214000
@<TRIPOS>BOND
     1     1     5 1   
     2     1    13 1   
     3     1    14 1   
     4     2    11 1   
     5     3     8 1   
     6     3    10 2   
     7     3    20 1   
     8     4     6 1   
     9     4    10 1   
    10     4    11 1   
    11     4    15 1   
    12     5     7 1   
    13     5    16 1   
    14     5    17 1   
    15     6     7 2   
    16     6    18 1   
    17     7     8 1   
    18     8     9 2   
    19    10    19 1   
    20    11    12 1   
@<TRIPOS>SUBSTRUCTURE
     1 VRC         1 TEMP              0 ****  ****    0 ROOT
