@<TRIPOS>MOLECULE
VRC
   20    20     1     0     0
SMALL
abcg2


@<TRIPOS>ATOM
      1 N1          -3.1550    16.6420   -34.1970 n8         1 VRC      -0.994200
      2 O1           1.8820    12.9210   -35.5790 o          1 VRC      -0.383500
      3 C1          -1.8400    12.4210   -34.5040 ce         1 VRC      -0.249200
      4 C5          -0.3570    13.3800   -36.2120 c6         1 VRC       0.031700
      5 C6          -3.1850    15.9360   -35.4890 c3         1 VRC       0.196000
      6 C4          -1.2000    14.6080   -36.1960 c2         1 VRC      -0.181200
      7 C3          -2.3070    14.7150   -35.4560 ce         1 VRC      -0.138400
      8 C2          -2.7120    13.6040   -34.5620 c          1 VRC       0.554500
      9 O2          -3.7350    13.6680   -33.8880 o          1 VRC      -0.508100
     10 C           -0.7330    12.3190   -35.2390 c2         1 VRC      -0.174200
     11 N            1.1430    13.7460   -36.0780 no         1 VRC       0.572000
     12 O            1.4980    14.8190   -36.5230 o          1 VRC      -0.383500
     13 H1          -3.6580    17.5180   -34.2900 hn         1 VRC       0.406000
     14 H2          -3.6630    16.0930   -33.5110 hn         1 VRC       0.406000
     15 H5          -0.3750    12.9520   -37.2250 h1         1 VRC       0.110700
     16 H6          -2.8140    16.6120   -36.2590 h1         1 VRC       0.044200
     17 H7          -4.1970    15.6270   -35.7800 h1         1 VRC       0.044200
     18 H8          -0.8970    15.4100   -36.8550 ha         1 VRC       0.217000
     19 H9          -0.1000    11.4450   -35.1870 ha         1 VRC       0.217000
     20 H4          -2.1430    11.6320   -33.8280 ha         1 VRC       0.214000
@<TRIPOS>BOND
     1     1     5 1   
     2     1    13 1   
     3     1    14 1   
     4     2    11 1   
     5     3     8 1   
     6     3    10 2   
     7     3    20 1   
     8     4     6 1   
     9     4    10 1   
    10     4    11 1   
    11     4    15 1   
    12     5     7 1   
    13     5    16 1   
    14     5    17 1   
    15     6     7 2   
    16     6    18 1   
    17     7     8 1   
    18     8     9 2   
    19    10    19 1   
    20    11    12 1   
@<TRIPOS>SUBSTRUCTURE
     1 VRC         1 TEMP              0 ****  ****    0 ROOT
