@<TRIPOS>MOLECULE
VRG
   72    72     1     0     0
SMALL
bcc


@<TRIPOS>ATOM
      1 CBB         96.3060    71.2770    -9.5830 c          1 VRG       0.653100
      2 OAE         96.2550    71.7640   -10.7070 o          1 VRG      -0.533100
      3 CAB         97.0840    70.0210    -9.2960 c3         1 VRG      -0.170100
      4 CAA         88.9050    66.6700    -3.7290 c3         1 VRG       0.114300
      5 NAD         92.7870    70.0890    -4.5970 n2         1 VRG      -0.851100
      6 OAH         90.9330    68.4280    -3.0770 o          1 VRG      -0.593100
      7 CAS         92.3620    72.7410    -5.7790 c3         1 VRG       0.226800
      8 CAT         94.2030    73.3820    -7.3710 c3         1 VRG      -0.088400
      9 NAW         89.3060    67.8140    -4.5120 ns         1 VRG      -0.606900
     10 NAX         91.3510    71.7830    -5.4030 nu         1 VRG      -0.932200
     11 NAY         90.5250    69.6980    -4.9500 ns         1 VRG      -0.540400
     12 NAZ         95.6680    71.8310    -8.5400 ns         1 VRG      -0.571900
     13 CBD         91.6450    70.5310    -4.9550 c2         1 VRG       0.706800
     14 CBF         90.3120    68.6210    -4.1070 c          1 VRG       0.810100
     15 CBH         95.9360    74.1980    -9.0010 c          1 VRG       0.659100
     16 CBK         94.9450    73.0720    -8.6700 c3         1 VRG       0.039700
     17 NBM         95.5670    75.1770    -9.8590 n          1 VRG      -0.453800
     18 CBL         94.2420    75.3780   -10.4180 c3         1 VRG       0.024700
     19 CBG         94.2490    75.1870   -11.9480 c          1 VRG       0.651100
     20 OAI         93.5320    75.8700   -12.6700 o          1 VRG      -0.665100
     21 CAV         93.6400    76.7340   -10.0170 c3         1 VRG      -0.048100
     22 CBI         93.3620    76.8120    -8.5430 ca         1 VRG      -0.055300
     23 CAQ         92.1210    76.4130    -8.0450 ca         1 VRG      -0.126500
     24 CAO         91.8560    76.4380    -6.6830 ca         1 VRG      -0.142000
     25 CAM         92.8350    76.8570    -5.7910 ca         1 VRG      -0.156000
     26 CAN         94.0720    77.2620    -6.2740 ca         1 VRG      -0.142000
     27 CAP         94.3300    77.2420    -7.6390 ca         1 VRG      -0.126500
     28 N           95.0650    74.2310   -12.3830 ns         1 VRG      -0.457900
     29 CA          95.2060    73.8460   -13.7690 c3         1 VRG      -0.018300
     30 C           94.2390    72.7060   -14.1850 c          1 VRG       0.926600
     31 O           94.3320    72.3510   -15.3780 o          1 VRG      -0.861300
     32 CB          96.6690    73.4960   -14.0270 c3         1 VRG      -0.200400
     33 CG          97.6250    74.6660   -13.7180 c          1 VRG       0.916600
     34 OD1         98.6570    74.4000   -13.0680 o          1 VRG      -0.872300
     35 OD2         97.2950    75.7860   -14.1610 o          1 VRG      -0.872300
     36 OXT         93.4600    72.2590   -13.3240 o          1 VRG      -0.861300
     37 HAB         96.7700    69.2340    -9.9800 hc         1 VRG       0.050033
     38 HABA        98.1430    70.2050    -9.4770 hc         1 VRG       0.050033
     39 HABB        96.9670    69.6610    -8.2750 hc         1 VRG       0.050033
     40 HAA         88.0400    66.2170    -4.2060 h1         1 VRG       0.033700
     41 HAAA        89.6910    65.9150    -3.6610 h1         1 VRG       0.033700
     42 HAAB        88.6200    66.9570    -2.7170 h1         1 VRG       0.033700
     43 HNAD        93.4830    70.8260    -4.5970 hn         1 VRG       0.394400
     44 HAR         93.4590    71.3790    -7.0300 hc         1 VRG       0.056200
     45 HARA        92.3530    72.4210    -7.9060 hc         1 VRG       0.056200
     46 HAS         91.8710    73.7100    -5.8650 h1         1 VRG       0.047200
     47 HASA        93.0940    72.8530    -4.9720 h1         1 VRG       0.047200
     48 HAT         93.7930    74.3910    -7.4360 hc         1 VRG       0.054200
     49 HATA        94.9190    73.3970    -6.5430 hc         1 VRG       0.054200
     50 HNAW        88.9040    67.9200    -5.4280 hn         1 VRG       0.311500
     51 HNAX        90.3900    72.0260    -5.5760 hn         1 VRG       0.422800
     52 HNAY        89.8230    69.8880    -5.6500 hn         1 VRG       0.310500
     53 HNAZ        95.8280    71.4620    -7.6150 hn         1 VRG       0.299500
     54 HBK         94.2140    72.9380    -9.4700 h1         1 VRG       0.099700
     55 HAC         96.2430    76.7220   -11.0900 h1         1 VRG       0.055367
     56 HACA        96.8650    76.8030    -9.4410 h1         1 VRG       0.055367
     57 HACB        97.4950    75.6050   -10.5800 h1         1 VRG       0.055367
     58 HBL         93.5700    74.6150   -10.0240 h1         1 VRG       0.055700
     59 HAV         94.2960    77.5490   -10.3270 hc         1 VRG       0.073200
     60 HAVA        92.7090    76.8600   -10.5680 hc         1 VRG       0.073200
     61 HAQ         91.3540    76.0790    -8.7350 ha         1 VRG       0.140000
     62 HAO         90.8850    76.1290    -6.3180 ha         1 VRG       0.116500
     63 HAM         92.6330    76.8740    -4.7280 ha         1 VRG       0.112000
     64 HAN         94.8390    77.5980    -5.5880 ha         1 VRG       0.116500
     65 HAP         95.2950    77.5750    -8.0010 ha         1 VRG       0.140000
     66 HN          95.5360    73.6480   -11.7040 hn         1 VRG       0.322500
     67 HA          94.9620    74.7190   -14.3760 h1         1 VRG       0.077700
     68 HB          96.9510    72.6120   -13.4470 hc         1 VRG       0.035200
     69 HBA         96.7750    73.2230   -15.0800 hc         1 VRG       0.035200
     70 CAR         93.0750    72.4000    -7.0850 c3         1 VRG      -0.106400
     71 CAC         96.5980    76.1260   -10.2530 c3         1 VRG       0.075300
     72 OAJ         97.0470    74.1850    -8.4980 o          1 VRG      -0.621100
@<TRIPOS>BOND
     1     1     2 2   
     2     1     3 1   
     3     1    12 1   
     4     3    37 1   
     5     3    38 1   
     6     3    39 1   
     7     4     9 1   
     8     4    40 1   
     9     4    41 1   
    10     4    42 1   
    11     5    13 2   
    12     5    43 1   
    13     6    14 2   
    14     7    10 1   
    15     7    46 1   
    16     7    47 1   
    17     7    70 1   
    18     8    16 1   
    19     8    48 1   
    20     8    49 1   
    21     8    70 1   
    22     9    14 1   
    23     9    50 1   
    24    10    13 1   
    25    10    51 1   
    26    11    13 1   
    27    11    14 1   
    28    11    52 1   
    29    12    16 1   
    30    12    53 1   
    31    15    16 1   
    32    15    17 1   
    33    15    72 2   
    34    16    54 1   
    35    17    18 1   
    36    17    71 1   
    37    18    19 1   
    38    18    21 1   
    39    18    58 1   
    40    19    20 2   
    41    19    28 1   
    42    21    22 1   
    43    21    59 1   
    44    21    60 1   
    45    22    23 ar  
    46    22    27 ar  
    47    23    24 ar  
    48    23    61 1   
    49    24    25 ar  
    50    24    62 1   
    51    25    26 ar  
    52    25    63 1   
    53    26    27 ar  
    54    26    64 1   
    55    27    65 1   
    56    28    29 1   
    57    28    66 1   
    58    29    30 1   
    59    29    32 1   
    60    29    67 1   
    61    30    31 1   
    62    30    36 1   
    63    32    33 1   
    64    32    68 1   
    65    32    69 1   
    66    33    34 1   
    67    33    35 1   
    68    44    70 1   
    69    45    70 1   
    70    55    71 1   
    71    56    71 1   
    72    57    71 1   
@<TRIPOS>SUBSTRUCTURE
     1 VRG         1 TEMP              0 ****  ****    0 ROOT
