@<TRIPOS>MOLECULE
VRG
   72    72     1     0     0
SMALL
No Charge or Current Charge


@<TRIPOS>ATOM
      1 CBB         95.1620    70.0130    -8.4030 c          1 VRG       0.586100
      2 OAE         94.0100    69.9040    -8.7910 o          1 VRG      -0.533100
      3 CAB         96.0460    68.8070    -8.1070 c3         1 VRG      -0.170100
      4 CAA         89.4270    66.8360    -6.2130 c3         1 VRG       0.114300
      5 NAD         92.1450    70.7180    -3.4270 n2         1 VRG      -0.851100
      6 OAH         90.3170    68.3380    -3.9530 o          1 VRG      -0.593100
      7 CAS         92.6200    72.9520    -5.3550 c3         1 VRG       0.226800
      8 CAT         94.5200    73.0900    -7.0880 c3         1 VRG      -0.088400
      9 NAW         90.0130    68.1780    -6.2020 ns         1 VRG      -0.539900
     10 NAX         91.4210    72.1970    -4.9560 nu         1 VRG      -0.987400
     11 NAY         90.9190    70.0630    -5.3300 ns         1 VRG      -0.473400
     12 NAZ         95.7700    71.2330    -8.2030 ns         1 VRG      -0.504900
     13 CBD         91.4500    70.9490    -4.4470 c2         1 VRG       0.706800
     14 CBF         90.4190    68.8270    -5.0650 c          1 VRG       0.676100
     15 CBH         96.1510    73.5730    -9.0180 c          1 VRG       0.592100
     16 CBK         95.1300    72.5530    -8.4130 c3         1 VRG       0.039700
     17 NBM         95.6770    74.8060    -9.5590 n          1 VRG      -0.386800
     18 CBL         94.2480    74.9690   -10.0250 c3         1 VRG       0.024700
     19 CBG         93.9670    74.3710   -11.4370 c          1 VRG       0.584100
     20 OAI         92.8290    74.2320   -11.8730 o          1 VRG      -0.665100
     21 CAV         93.7090    76.4290    -9.9460 c3         1 VRG      -0.048100
     22 CBI         93.7530    77.0060    -8.5340 ca         1 VRG      -0.055300
     23 CAQ         92.8860    76.5090    -7.5410 ca         1 VRG      -0.108500
     24 CAO         92.9260    77.0300    -6.2360 ca         1 VRG      -0.124000
     25 CAM         93.8290    78.0580    -5.9180 ca         1 VRG      -0.138000
     26 CAN         94.6870    78.5670    -6.9060 ca         1 VRG      -0.124000
     27 CAP         94.6470    78.0460    -8.2110 ca         1 VRG      -0.108500
     28 N           95.0770    73.9680   -12.1520 ns         1 VRG      -0.390900
     29 CA          95.0710    73.4400   -13.5350 c3         1 VRG      -0.018300
     30 C           95.9740    72.1700   -13.6200 c          1 VRG       0.716000
     31 O           95.4840    71.1400   -14.0620 o          1 VRG      -0.756000
     32 CB          95.4870    74.5240   -14.5700 c3         1 VRG      -0.200400
     33 CG          94.4950    75.6970   -14.5960 c          1 VRG       0.706000
     34 OD1         94.7200    76.6640   -13.8850 o          1 VRG      -0.767000
     35 OD2         93.5290    75.6170   -15.3390 o          1 VRG      -0.767000
     36 OXT         97.1070    72.2260   -13.1600 o          1 VRG      -0.756000
     37 HAB         95.5330    67.8540    -8.2810 hc         1 VRG       0.050033
     38 HABA        96.9660    68.8850    -8.6970 hc         1 VRG       0.050033
     39 HABB        96.4220    68.8830    -7.0810 hc         1 VRG       0.050033
     40 HAA         89.1960    66.5470    -7.2460 h1         1 VRG       0.033700
     41 HAAA        90.1400    66.1190    -5.7870 h1         1 VRG       0.033700
     42 HAAB        88.5040    66.8310    -5.6200 h1         1 VRG       0.033700
     43 HNAD        92.4540    71.6420    -3.1100 hn         1 VRG       0.394400
     44 HAR         93.5340    71.2900    -6.3920 hc         1 VRG       0.056200
     45 HARA        92.5230    72.3100    -7.4210 hc         1 VRG       0.056200
     46 HAS         92.3420    73.9920    -5.5770 h1         1 VRG       0.047200
     47 HASA        93.3530    72.9740    -4.5370 h1         1 VRG       0.047200
     48 HAT         94.2590    74.1470    -7.2090 hc         1 VRG       0.054200
     49 HATA        95.2850    73.0600    -6.3020 hc         1 VRG       0.054200
     50 HNAW        90.1350    68.6560    -7.0850 hn         1 VRG       0.311500
     51 HNAX        90.5610    72.4260    -5.4500 hn         1 VRG       0.478000
     52 HNAY        90.9030    70.3610    -6.2880 hn         1 VRG       0.310500
     53 HNAZ        96.7430    71.2170    -7.9160 hn         1 VRG       0.299500
     54 HBK         94.3320    72.4270    -9.1550 h1         1 VRG       0.099700
     55 HAC         96.3000    76.4140   -10.8370 h1         1 VRG       0.055367
     56 HACA        96.8660    76.5180    -9.1440 h1         1 VRG       0.055367
     57 HACB        97.6160    75.3740   -10.2860 h1         1 VRG       0.055367
     58 HBL         93.6000    74.3970    -9.3540 h1         1 VRG       0.055700
     59 HAV         94.2400    77.0750   -10.6540 hc         1 VRG       0.073200
     60 HAVA        92.6660    76.4340   -10.2870 hc         1 VRG       0.073200
     61 HAQ         92.1810    75.7150    -7.7790 ha         1 VRG       0.122000
     62 HAO         92.2570    76.6380    -5.4740 ha         1 VRG       0.098500
     63 HAM         93.8600    78.4610    -4.9080 ha         1 VRG       0.094000
     64 HAN         95.3830    79.3670    -6.6620 ha         1 VRG       0.098500
     65 HAP         95.3140    78.4500    -8.9690 ha         1 VRG       0.122000
     66 HN          95.9740    74.0860   -11.6970 hn         1 VRG       0.322500
     67 HA          94.0530    73.1100   -13.7780 h1         1 VRG       0.077700
     68 HB          96.4830    74.8700   -14.2680 hc         1 VRG       0.035200
     69 HBA         95.4780    74.0100   -15.5390 hc         1 VRG       0.035200
     70 CAR         93.2630    72.3290    -6.6100 c3         1 VRG      -0.106400
     71 CAC         96.6690    75.8370    -9.9810 c3         1 VRG       0.075300
     72 OAJ         97.3560    73.3450    -8.9690 o          1 VRG      -0.621100
@<TRIPOS>BOND
     1     1     2 2   
     2     1     3 1   
     3     1    12 1   
     4     3    37 1   
     5     3    38 1   
     6     3    39 1   
     7     4     9 1   
     8     4    40 1   
     9     4    41 1   
    10     4    42 1   
    11     5    13 2   
    12     5    43 1   
    13     6    14 2   
    14     7    10 1   
    15     7    46 1   
    16     7    47 1   
    17     7    70 1   
    18     8    16 1   
    19     8    48 1   
    20     8    49 1   
    21     8    70 1   
    22     9    14 1   
    23     9    50 1   
    24    10    13 1   
    25    10    51 1   
    26    11    13 1   
    27    11    14 1   
    28    11    52 1   
    29    12    16 1   
    30    12    53 1   
    31    15    16 1   
    32    15    17 1   
    33    15    72 2   
    34    16    54 1   
    35    17    18 1   
    36    17    71 1   
    37    18    19 1   
    38    18    21 1   
    39    18    58 1   
    40    19    20 2   
    41    19    28 1   
    42    21    22 1   
    43    21    59 1   
    44    21    60 1   
    45    22    23 ar  
    46    22    27 ar  
    47    23    24 ar  
    48    23    61 1   
    49    24    25 ar  
    50    24    62 1   
    51    25    26 ar  
    52    25    63 1   
    53    26    27 ar  
    54    26    64 1   
    55    27    65 1   
    56    28    29 1   
    57    28    66 1   
    58    29    30 1   
    59    29    32 1   
    60    29    67 1   
    61    30    31 1   
    62    30    36 1   
    63    32    33 1   
    64    32    68 1   
    65    32    69 1   
    66    33    34 1   
    67    33    35 1   
    68    44    70 1   
    69    45    70 1   
    70    55    71 1   
    71    56    71 1   
    72    57    71 1   
@<TRIPOS>SUBSTRUCTURE
     1 VRG         1 TEMP              0 ****  ****    0 ROOT
