@<TRIPOS>MOLECULE
VRH
   31    31     1     0     0
SMALL
abcg2


@<TRIPOS>ATOM
      1 C7          21.6110    10.3090   -27.1130 c3         1 VRH       0.152900
      2 C8          22.5490    13.4320   -24.6940 c3         1 VRH       0.100600
      3 C9          21.2030    13.6660   -25.3650 c          1 VRH       0.589100
      4 O1          22.4360    12.4800   -23.6430 os         1 VRH      -0.327100
      5 C1          24.1200     8.6800   -24.1170 ca         1 VRH      -0.054300
      6 C5          22.7150    10.4630   -24.9900 ca         1 VRH       0.105100
      7 C6          23.2880     9.2020   -25.1130 ca         1 VRH      -0.179000
      8 C4          22.9980    11.2410   -23.8500 ca         1 VRH       0.076100
      9 C3          23.8180    10.7240   -22.8630 ca         1 VRH      -0.091000
     10 O3          22.4060    14.1810   -27.3620 os         1 VRH      -0.251100
     11 C2          24.3710     9.4510   -22.9870 ca         1 VRH      -0.127000
     12 O2          20.1340    13.4680   -24.8040 o          1 VRH      -0.558100
     13 N           21.2410    14.2160   -26.6040 ns         1 VRH      -0.384400
     14 C10         22.9480    15.5040   -27.5200 c3         1 VRH       0.125900
     15 O           21.8670    11.0120   -25.9000 os         1 VRH      -0.351100
     16 H1          20.9500    10.9500   -27.6910 h1         1 VRH       0.042367
     17 H2          22.5360    10.1360   -27.6680 h1         1 VRH       0.042367
     18 H3          21.1180     9.3540   -26.9170 h1         1 VRH       0.042367
     19 H4          23.3030    13.1370   -25.4190 h1         1 VRH       0.070700
     20 H5          22.8610    14.3780   -24.2420 h1         1 VRH       0.070700
     21 H6          23.0770     8.6020   -25.9880 ha         1 VRH       0.116000
     22 H7          24.0180    11.3340   -21.9910 ha         1 VRH       0.128000
     23 H8          25.0080     9.0650   -22.2010 ha         1 VRH       0.117000
     24 H9          20.3900    14.2510   -27.1540 hn         1 VRH       0.326500
     25 H10         23.8430    15.3740   -28.1250 h1         1 VRH       0.045033
     26 H11         22.2350    16.1480   -28.0380 h1         1 VRH       0.045033
     27 H12         23.2060    15.9300   -26.5500 h1         1 VRH       0.045033
     28 H13         25.4520     7.3030   -25.1050 hc         1 VRH       0.042700
     29 H14         25.2460     7.0010   -23.3770 hc         1 VRH       0.042700
     30 H15         23.9660     6.5660   -24.5190 hc         1 VRH       0.042700
     31 C           24.7290     7.3130   -24.2840 c3         1 VRH      -0.045800
@<TRIPOS>BOND
     1     1    15 1   
     2     1    16 1   
     3     1    17 1   
     4     1    18 1   
     5     2     3 1   
     6     2     4 1   
     7     2    19 1   
     8     2    20 1   
     9     3    12 2   
    10     3    13 1   
    11     4     8 1   
    12     5     7 ar  
    13     5    11 ar  
    14     5    31 1   
    15     6     7 ar  
    16     6     8 ar  
    17     6    15 1   
    18     7    21 1   
    19     8     9 ar  
    20     9    11 ar  
    21     9    22 1   
    22    10    13 1   
    23    10    14 1   
    24    11    23 1   
    25    13    24 1   
    26    14    25 1   
    27    14    26 1   
    28    14    27 1   
    29    28    31 1   
    30    29    31 1   
    31    30    31 1   
@<TRIPOS>SUBSTRUCTURE
     1 VRH         1 TEMP              0 ****  ****    0 ROOT
