@<TRIPOS>MOLECULE
VRH
   31    31     1     0     0
SMALL
No Charge or Current Charge


@<TRIPOS>ATOM
      1 C7          22.5160    10.1970   -27.5940 c3         1 VRH       0.152900
      2 C8          23.2500    13.5210   -25.2620 c3         1 VRH       0.100600
      3 C9          21.6960    13.4640   -25.2830 c          1 VRH       0.589100
      4 O1          23.8480    12.6840   -24.2370 os         1 VRH      -0.327100
      5 C1          23.7420     8.4810   -23.8530 ca         1 VRH      -0.054300
      6 C5          23.3540    10.4520   -25.2690 ca         1 VRH       0.105100
      7 C6          23.3390     9.0490   -25.0750 ca         1 VRH      -0.179000
      8 C4          23.7830    11.2950   -24.1960 ca         1 VRH       0.076100
      9 C3          24.1930    10.7080   -22.9860 ca         1 VRH      -0.091000
     10 O3          21.8460    14.7200   -27.3600 os         1 VRH      -0.251100
     11 C2          24.1730     9.3160   -22.8120 ca         1 VRH      -0.127000
     12 O2          21.0280    12.8620   -24.4480 o          1 VRH      -0.558100
     13 N           21.0560    14.1590   -26.2990 ns         1 VRH      -0.384400
     14 C10         21.8780    16.1560   -27.2890 c3         1 VRH       0.125900
     15 O           22.9750    10.9940   -26.4870 os         1 VRH      -0.351100
     16 H1          22.2640    10.8420   -28.4450 h1         1 VRH       0.042367
     17 H2          23.2930     9.4950   -27.9200 h1         1 VRH       0.042367
     18 H3          21.6170     9.6300   -27.3210 h1         1 VRH       0.042367
     19 H4          23.6380    13.2730   -26.2560 h1         1 VRH       0.070700
     20 H5          23.5160    14.5690   -25.0800 h1         1 VRH       0.070700
     21 H6          23.0210     8.3780   -25.8670 ha         1 VRH       0.116000
     22 H7          24.5280    11.3440   -22.1700 ha         1 VRH       0.128000
     23 H8          24.4950     8.8880   -21.8650 ha         1 VRH       0.117000
     24 H9          20.0580    14.0670   -26.4660 hn         1 VRH       0.326500
     25 H10         22.4880    16.5640   -28.1040 h1         1 VRH       0.045033
     26 H11         20.8660    16.5720   -27.3770 h1         1 VRH       0.045033
     27 H12         22.3100    16.4900   -26.3370 h1         1 VRH       0.045033
     28 H13         24.6350     6.5170   -24.0720 hc         1 VRH       0.042700
     29 H14         23.6500     6.6960   -22.6100 hc         1 VRH       0.042700
     30 H15         22.8660     6.5180   -24.1850 hc         1 VRH       0.042700
     31 C           23.7220     6.9710   -23.6690 c3         1 VRH      -0.045800
@<TRIPOS>BOND
     1     1    15 1   
     2     1    16 1   
     3     1    17 1   
     4     1    18 1   
     5     2     3 1   
     6     2     4 1   
     7     2    19 1   
     8     2    20 1   
     9     3    12 2   
    10     3    13 1   
    11     4     8 1   
    12     5     7 ar  
    13     5    11 ar  
    14     5    31 1   
    15     6     7 ar  
    16     6     8 ar  
    17     6    15 1   
    18     7    21 1   
    19     8     9 ar  
    20     9    11 ar  
    21     9    22 1   
    22    10    13 1   
    23    10    14 1   
    24    11    23 1   
    25    13    24 1   
    26    14    25 1   
    27    14    26 1   
    28    14    27 1   
    29    28    31 1   
    30    29    31 1   
    31    30    31 1   
@<TRIPOS>SUBSTRUCTURE
     1 VRH         1 TEMP              0 ****  ****    0 ROOT
