@<TRIPOS>MOLECULE
VRJ
   62    65     1     0     0
SMALL
No Charge or Current Charge


@<TRIPOS>ATOM
      1 O5           2.9380   -15.3940    20.0290 o          1 VRJ      -0.504000
      2 O4           0.9600   -16.5090    18.9010 o          1 VRJ      -0.504000
      3 C4           4.0090    -9.5980    17.3260 ca         1 VRJ      -0.126000
      4 C3           4.0100    -8.6480    18.3620 ca         1 VRJ      -0.046000
      5 O3           3.5660   -12.9840    18.5310 o          1 VRJ      -0.514100
      6 C2           2.9210    -8.5660    19.2500 ca         1 VRJ      -0.144300
      7 O2           3.7900    -7.9590    21.4150 oh         1 VRJ      -0.645000
      8 C1           1.8270    -9.4460    19.0870 ca         1 VRJ       0.165100
      9 O1           0.7280    -9.3910    19.9190 os         1 VRJ      -0.339100
     10 C10          1.1280    -4.0300    20.9260 ca         1 VRJ      -0.166000
     11 C11          1.6460    -2.7360    20.7540 ca         1 VRJ      -0.071000
     12 C12          2.1950    -2.4070    19.5050 ca         1 VRJ      -0.166000
     13 C13          2.2040    -3.3730    18.4850 ca         1 VRJ       0.340900
     14 C14          1.8270   -10.3810    18.0410 ca         1 VRJ      -0.129000
     15 C15          2.9240   -10.4890    17.1560 cp         1 VRJ      -0.015000
     16 C16          2.9170   -11.4930    16.0520 cp         1 VRJ       0.049000
     17 C17          2.9800   -11.0320    14.7150 ca         1 VRJ      -0.154000
     18 C18          2.8890   -11.9210    13.6360 ca         1 VRJ       0.194000
     19 C19          2.7820   -12.8980    16.2630 ca         1 VRJ      -0.166600
     20 C20          2.6720   -13.7890    15.1720 ca         1 VRJ      -0.059000
     21 C21          2.7280   -13.2950    13.8590 ca         1 VRJ      -0.162000
     22 C22          2.7850   -13.3950    17.6880 c          1 VRJ       0.644700
     23 C23          0.4820   -14.2910    20.3580 c3         1 VRJ      -0.249000
     24 C24          1.1580   -12.9780    20.8530 c3         1 VRJ      -0.084767
     25 C25          0.0650   -15.1360    21.5970 c3         1 VRJ      -0.084767
     26 C26         -0.7890   -13.9330    19.5310 c3         1 VRJ      -0.084767
     27 C5           2.9230    -7.5190    20.3650 c6         1 VRJ       0.224600
     28 C6           1.4970    -7.2790    20.9280 c6         1 VRJ      -0.128700
     29 C7           0.8210    -8.6530    21.1540 c6         1 VRJ       0.167600
     30 C8           0.6320    -6.3550    20.0060 c3         1 VRJ      -0.124700
     31 C9           1.1750    -4.9400    19.8520 ca         1 VRJ       0.347300
     32 N1           1.7040    -4.6200    18.6490 nb         1 VRJ      -0.669000
     33 N2           1.8790   -14.3790    17.9330 ns         1 VRJ      -0.579300
     34 S1           1.6560   -15.2890    19.3230 s6         1 VRJ       1.171800
     35 H2           4.8580    -7.9760    18.4750 ha         1 VRJ       0.117000
     36 H3           3.8700    -7.2110    22.0440 ho         1 VRJ       0.438000
     37 H4           0.6940    -4.3260    21.8770 ha         1 VRJ       0.121000
     38 H5           1.6240    -2.0110    21.5660 ha         1 VRJ       0.119000
     39 H6           2.6090    -1.4190    19.3220 ha         1 VRJ       0.125000
     40 H7           2.6230    -3.1430    17.5060 h4         1 VRJ       0.020100
     41 H8           0.9680   -11.0340    17.9160 ha         1 VRJ       0.122000
     42 H9           3.0770    -9.9680    14.5170 ha         1 VRJ       0.143000
     43 H10          2.5770   -14.8610    15.3360 ha         1 VRJ       0.123000
     44 H11          2.6550   -13.9760    13.0140 ha         1 VRJ       0.137000
     45 H12          2.0710   -13.1870    21.4250 hc         1 VRJ       0.053589
     46 H13          1.4240   -12.3250    20.0160 hc         1 VRJ       0.053589
     47 H14          0.4810   -12.4110    21.5040 hc         1 VRJ       0.053589
     48 H15          0.9380   -15.4070    22.2040 hc         1 VRJ       0.053589
     49 H16         -0.6270   -14.5770    22.2390 hc         1 VRJ       0.053589
     50 H17         -0.4370   -16.0640    21.2950 hc         1 VRJ       0.053589
     51 H18         -1.2910   -14.8360    19.1610 hc         1 VRJ       0.053589
     52 H19         -1.5110   -13.3810    20.1460 hc         1 VRJ       0.053589
     53 H20         -0.5430   -13.3030    18.6680 hc         1 VRJ       0.053589
     54 H21          3.3110    -6.5750    19.9530 h1         1 VRJ       0.052700
     55 H22          1.5700    -6.7650    21.8960 hc         1 VRJ       0.055700
     56 H23         -0.1880    -8.5260    21.5730 h1         1 VRJ       0.065200
     57 H24          1.4080    -9.2440    21.8710 h1         1 VRJ       0.065200
     58 H25         -0.3850    -6.2880    20.4110 hc         1 VRJ       0.069200
     59 H26          0.5160    -6.8160    19.0170 hc         1 VRJ       0.069200
     60 H27          1.2650   -14.6730    17.1930 hn         1 VRJ       0.335500
     61 F1           2.9430   -11.4490    12.3720 f          1 VRJ      -0.172000
     62 H1           4.8600    -9.6530    16.6510 ha         1 VRJ       0.120000
@<TRIPOS>BOND
     1     1    34 2   
     2     2    34 2   
     3     3     4 ar  
     4     3    15 ar  
     5     3    62 1   
     6     4     6 ar  
     7     4    35 1   
     8     5    22 2   
     9     6     8 ar  
    10     6    27 1   
    11     7    27 1   
    12     7    36 1   
    13     8     9 1   
    14     8    14 ar  
    15     9    29 1   
    16    10    11 ar  
    17    10    31 ar  
    18    10    37 1   
    19    11    12 ar  
    20    11    38 1   
    21    12    13 ar  
    22    12    39 1   
    23    13    32 ar  
    24    13    40 1   
    25    14    15 ar  
    26    14    41 1   
    27    15    16 1   
    28    16    17 ar  
    29    16    19 ar  
    30    17    18 ar  
    31    17    42 1   
    32    18    21 ar  
    33    18    61 1   
    34    19    20 ar  
    35    19    22 1   
    36    20    21 ar  
    37    20    43 1   
    38    21    44 1   
    39    22    33 1   
    40    23    24 1   
    41    23    25 1   
    42    23    26 1   
    43    23    34 1   
    44    24    45 1   
    45    24    46 1   
    46    24    47 1   
    47    25    48 1   
    48    25    49 1   
    49    25    50 1   
    50    26    51 1   
    51    26    52 1   
    52    26    53 1   
    53    27    28 1   
    54    27    54 1   
    55    28    29 1   
    56    28    30 1   
    57    28    55 1   
    58    29    56 1   
    59    29    57 1   
    60    30    31 1   
    61    30    58 1   
    62    30    59 1   
    63    31    32 ar  
    64    33    34 1   
    65    33    60 1   
@<TRIPOS>SUBSTRUCTURE
     1 VRJ         1 TEMP              0 ****  ****    0 ROOT
