@<TRIPOS>MOLECULE
VRJ
   62    65     1     0     0
SMALL
bcc


@<TRIPOS>ATOM
      1 O5           1.5820   -13.4980    20.9520 o          1 VRJ      -0.574800
      2 O4           2.5860   -15.5430    19.9380 o          1 VRJ      -0.574800
      3 C4           4.0130    -9.2600    17.3330 ca         1 VRJ      -0.144000
      4 C3           4.1660    -8.2850    18.3010 ca         1 VRJ      -0.064000
      5 O3           3.6110   -12.8890    18.6670 o          1 VRJ      -0.514100
      6 C2           3.2650    -8.1500    19.3520 ca         1 VRJ      -0.144300
      7 O2           4.4300    -7.5200    21.2950 oh         1 VRJ      -0.582800
      8 C1           2.1920    -9.0380    19.4230 ca         1 VRJ       0.165100
      9 O1           1.2510    -8.9750    20.3840 os         1 VRJ      -0.315900
     10 C10          1.8040    -3.6530    20.8340 ca         1 VRJ      -0.249300
     11 C11          2.2880    -2.4070    20.4760 ca         1 VRJ      -0.089000
     12 C12          2.6080    -2.1710    19.1470 ca         1 VRJ      -0.249300
     13 C13          2.4250    -3.2030    18.2420 ca         1 VRJ       0.406200
     14 C14          2.0240   -10.0220    18.4500 ca         1 VRJ      -0.147000
     15 C15          2.9310   -10.1390    17.4070 cp         1 VRJ      -0.015000
     16 C16          2.7130   -11.1420    16.3420 cp         1 VRJ       0.049000
     17 C17          2.6790   -10.7070    15.0210 ca         1 VRJ      -0.172000
     18 C18          2.4120   -11.6070    14.0100 ca         1 VRJ       0.158900
     19 C19          2.4740   -12.4960    16.6100 ca         1 VRJ      -0.166600
     20 C20          2.1940   -13.3760    15.5690 ca         1 VRJ      -0.077000
     21 C21          2.1640   -12.9420    14.2540 ca         1 VRJ      -0.180000
     22 C22          2.6240   -13.0470    17.9880 c          1 VRJ       0.711700
     23 C23         -0.0970   -15.3450    19.9430 c3         1 VRJ      -0.138200
     24 C24         -1.1910   -14.2870    19.8510 c3         1 VRJ      -0.084767
     25 C25         -0.1610   -16.0590    21.2960 c3         1 VRJ      -0.084767
     26 C26         -0.1680   -16.3540    18.8030 c3         1 VRJ      -0.084767
     27 C5           3.4440    -7.0720    20.3860 c6         1 VRJ       0.201400
     28 C6           2.1090    -6.8040    21.0820 c6         1 VRJ      -0.128700
     29 C7           1.5200    -8.1380    21.5030 c6         1 VRJ       0.144400
     30 C8           1.1380    -6.0010    20.2060 c3         1 VRJ      -0.124700
     31 C9           1.6530    -4.6330    19.8540 ca         1 VRJ       0.412600
     32 N1           1.9620    -4.4030    18.5790 nb         1 VRJ      -0.669000
     33 N2           1.5510   -13.7910    18.4060 ns         1 VRJ      -0.646300
     34 S1           1.5410   -14.5340    19.9330 s6         1 VRJ       1.202600
     35 H2           5.0010    -7.5960    18.2370 ha         1 VRJ       0.135000
     36 H3           4.6230    -6.7970    21.9030 ho         1 VRJ       0.399000
     37 H4           1.5390    -3.8690    21.8620 ha         1 VRJ       0.139000
     38 H5           2.4100    -1.6310    21.2210 ha         1 VRJ       0.137000
     39 H6           2.9890    -1.2140    18.8170 ha         1 VRJ       0.143000
     40 H7           2.6620    -3.0580    17.1930 h4         1 VRJ       0.020100
     41 H8           1.1610   -10.6750    18.5090 ha         1 VRJ       0.140000
     42 H9           2.8330    -9.6610    14.7860 ha         1 VRJ       0.161000
     43 H10          2.0220   -14.4250    15.7760 ha         1 VRJ       0.141000
     44 H11          1.9560   -13.6280    13.4440 ha         1 VRJ       0.155000
     45 H12         -1.1180   -13.5570    20.6540 hc         1 VRJ       0.053589
     46 H13         -1.2030   -13.7590    18.8970 hc         1 VRJ       0.053589
     47 H14         -2.1530   -14.7920    19.9450 hc         1 VRJ       0.053589
     48 H15         -0.0980   -15.3640    22.1320 hc         1 VRJ       0.053589
     49 H16         -1.1240   -16.5660    21.3560 hc         1 VRJ       0.053589
     50 H17          0.6170   -16.8140    21.4010 hc         1 VRJ       0.053589
     51 H18          0.6300   -17.0920    18.8650 hc         1 VRJ       0.053589
     52 H19         -1.1180   -16.8830    18.8820 hc         1 VRJ       0.053589
     53 H20         -0.1390   -15.8890    17.8180 hc         1 VRJ       0.053589
     54 H21          3.7840    -6.1600    19.8790 h1         1 VRJ       0.052700
     55 H22          2.3000    -6.2320    21.9970 hc         1 VRJ       0.055700
     56 H23          0.5670    -8.0090    22.0150 h1         1 VRJ       0.065200
     57 H24          2.2060    -8.6510    22.1860 h1         1 VRJ       0.065200
     58 H25          0.1940    -5.9010    20.7490 hc         1 VRJ       0.069200
     59 H26          0.9140    -6.5280    19.2780 hc         1 VRJ       0.069200
     60 H27          0.6900   -13.7650    17.8730 hn         1 VRJ       0.335500
     61 F1           2.3800   -11.1590    12.7510 f          1 VRJ      -0.136900
     62 H1           4.7290    -9.3460    16.5260 ha         1 VRJ       0.138000
@<TRIPOS>BOND
     1     1    34 2   
     2     2    34 2   
     3     3     4 ar  
     4     3    15 ar  
     5     3    62 1   
     6     4     6 ar  
     7     4    35 1   
     8     5    22 2   
     9     6     8 ar  
    10     6    27 1   
    11     7    27 1   
    12     7    36 1   
    13     8     9 1   
    14     8    14 ar  
    15     9    29 1   
    16    10    11 ar  
    17    10    31 ar  
    18    10    37 1   
    19    11    12 ar  
    20    11    38 1   
    21    12    13 ar  
    22    12    39 1   
    23    13    32 ar  
    24    13    40 1   
    25    14    15 ar  
    26    14    41 1   
    27    15    16 1   
    28    16    17 ar  
    29    16    19 ar  
    30    17    18 ar  
    31    17    42 1   
    32    18    21 ar  
    33    18    61 1   
    34    19    20 ar  
    35    19    22 1   
    36    20    21 ar  
    37    20    43 1   
    38    21    44 1   
    39    22    33 1   
    40    23    24 1   
    41    23    25 1   
    42    23    26 1   
    43    23    34 1   
    44    24    45 1   
    45    24    46 1   
    46    24    47 1   
    47    25    48 1   
    48    25    49 1   
    49    25    50 1   
    50    26    51 1   
    51    26    52 1   
    52    26    53 1   
    53    27    28 1   
    54    27    54 1   
    55    28    29 1   
    56    28    30 1   
    57    28    55 1   
    58    29    56 1   
    59    29    57 1   
    60    30    31 1   
    61    30    58 1   
    62    30    59 1   
    63    31    32 ar  
    64    33    34 1   
    65    33    60 1   
@<TRIPOS>SUBSTRUCTURE
     1 VRJ         1 TEMP              0 ****  ****    0 ROOT
