@<TRIPOS>MOLECULE
VRK
   51    55     1     0     0
SMALL
No Charge or Current Charge


@<TRIPOS>ATOM
      1 C1         110.0110   105.8910   138.2310 c3         1 VRK       0.160800
      2 O2         114.0230   110.9270   139.2500 oh         1 VRK      -0.536100
      3 C4         110.6590   105.2680   143.0360 c6         1 VRK      -0.041000
      4 C5         110.8920   105.9150   144.4520 c6         1 VRK      -0.061400
      5 C6         110.8120   104.8470   145.5820 c6         1 VRK      -0.059700
      6 C7         111.8810   103.7460   145.3280 c6         1 VRK      -0.068400
      7 C9         110.2280   102.4100   143.8950 c6         1 VRK      -0.068400
      8 C10        109.1270   103.4840   144.1210 c6         1 VRK      -0.059700
      9 C11        109.3880   104.1710   145.5170 c6         1 VRK      -0.068400
     10 C2         110.1440   106.7140   139.5630 c6         1 VRK       0.217600
     11 C3         110.6940   106.3650   141.9040 c6         1 VRK       0.186300
     12 C8         111.6390   103.0740   143.9400 c6         1 VRK      -0.059700
     13 C13        111.7400   104.1510   142.8230 c6         1 VRK      -0.061400
     14 C14        111.9870   107.2260   141.8460 c6         1 VRK      -0.063100
     15 C15        112.0750   108.0920   140.5780 ca         1 VRK      -0.103300
     16 C16        111.1970   107.8470   139.4900 ca         1 VRK      -0.109300
     17 C17        111.2630   108.6760   138.3470 ca         1 VRK      -0.096000
     18 C18        112.2090   109.7100   138.2640 ca         1 VRK      -0.118000
     19 C19        113.0950   109.9300   139.3250 ca         1 VRK       0.121100
     20 C20        113.0350   109.1280   140.4810 ca         1 VRK       0.043100
     21 N1         109.0970   104.7180   138.3040 n8         1 VRK      -1.004200
     22 O1         110.4860   105.7720   140.6090 os         1 VRK      -0.464000
     23 O3         113.9220   109.3720   141.5010 oh         1 VRK      -0.567100
     24 H1         111.0120   105.5290   137.9600 h1         1 VRK       0.039700
     25 H2         109.6580   106.5460   137.4240 h1         1 VRK       0.039700
     26 H3         114.5180   110.8890   140.1000 ho         1 VRK       0.480000
     27 H4         111.8760   106.3990   144.5000 hc         1 VRK       0.043533
     28 H5         110.1500   106.7050   144.6340 hc         1 VRK       0.043533
     29 H6         110.9690   105.3160   146.5640 hc         1 VRK       0.049033
     30 H7         111.8400   102.9900   146.1250 hc         1 VRK       0.039867
     31 H8         112.8890   104.1820   145.3680 hc         1 VRK       0.039867
     32 H9         110.1550   101.6270   144.6630 hc         1 VRK       0.039867
     33 H10        110.0760   101.9100   142.9280 hc         1 VRK       0.039867
     34 H11        108.1310   103.0230   144.1000 hc         1 VRK       0.049033
     35 H12        108.6110   104.9220   145.7120 hc         1 VRK       0.039867
     36 H13        109.2940   103.4260   146.3200 hc         1 VRK       0.039867
     37 H14        109.1640   107.1560   139.7960 h1         1 VRK       0.059700
     38 H15        109.8530   107.0510   142.0900 h1         1 VRK       0.039700
     39 H16        112.4060   102.3050   143.7720 hc         1 VRK       0.049033
     40 H19        111.6150   103.6770   141.8400 hc         1 VRK       0.043533
     41 H20        112.7520   104.5760   142.8310 hc         1 VRK       0.043533
     42 H21        112.8760   106.5860   141.8910 hc         1 VRK       0.054700
     43 H22        112.0150   107.8750   142.7300 hc         1 VRK       0.054700
     44 H23        110.5790   108.5330   137.5150 ha         1 VRK       0.119000
     45 H24        112.2540   110.3390   137.3790 ha         1 VRK       0.133000
     46 H25        109.2790   104.1010   137.5040 hn         1 VRK       0.401500
     47 H26        109.3840   104.1590   139.1170 hn         1 VRK       0.401500
     48 H28        113.7870   108.7010   142.2040 ho         1 VRK       0.475000
     49 C12        109.2430   104.5780   143.0210 c6         1 VRK      -0.061400
     50 H17        108.4550   105.3310   143.1670 hc         1 VRK       0.043533
     51 H18        109.0480   104.1220   142.0400 hc         1 VRK       0.043533
@<TRIPOS>BOND
     1     1    10 1   
     2     1    21 1   
     3     1    24 1   
     4     1    25 1   
     5     2    19 1   
     6     2    26 1   
     7     3     4 1   
     8     3    11 1   
     9     3    13 1   
    10     3    49 1   
    11     4     5 1   
    12     4    27 1   
    13     4    28 1   
    14     5     6 1   
    15     5     9 1   
    16     5    29 1   
    17     6    12 1   
    18     6    30 1   
    19     6    31 1   
    20     7     8 1   
    21     7    12 1   
    22     7    32 1   
    23     7    33 1   
    24     8     9 1   
    25     8    34 1   
    26     8    49 1   
    27     9    35 1   
    28     9    36 1   
    29    10    16 1   
    30    10    22 1   
    31    10    37 1   
    32    11    14 1   
    33    11    22 1   
    34    11    38 1   
    35    12    13 1   
    36    12    39 1   
    37    13    40 1   
    38    13    41 1   
    39    14    15 1   
    40    14    42 1   
    41    14    43 1   
    42    15    16 ar  
    43    15    20 ar  
    44    16    17 ar  
    45    17    18 ar  
    46    17    44 1   
    47    18    19 ar  
    48    18    45 1   
    49    19    20 ar  
    50    20    23 1   
    51    21    46 1   
    52    21    47 1   
    53    23    48 1   
    54    49    50 1   
    55    49    51 1   
@<TRIPOS>SUBSTRUCTURE
     1 VRK         1 TEMP              0 ****  ****    0 ROOT
