@<TRIPOS>MOLECULE
VRK
   51    55     1     0     0
SMALL
abcg2


@<TRIPOS>ATOM
      1 C1         110.0780   105.8370   138.3440 c3         1 VRK       0.160800
      2 O2         114.0030   110.8540   139.2770 oh         1 VRK      -0.536100
      3 C4         110.6650   105.2820   143.0030 c6         1 VRK      -0.041000
      4 C5         110.8630   105.9150   144.3950 c6         1 VRK      -0.061400
      5 C6         110.7660   104.8430   145.4910 c6         1 VRK      -0.059700
      6 C7         111.8570   103.7860   145.2620 c6         1 VRK      -0.068400
      7 C9         110.2750   102.4650   143.8360 c6         1 VRK      -0.068400
      8 C10        109.1860   103.5220   144.0660 c6         1 VRK      -0.059700
      9 C11        109.3870   104.1720   145.4420 c6         1 VRK      -0.068400
     10 C2         110.1850   106.6620   139.6180 c6         1 VRK       0.217600
     11 C3         110.7010   106.3690   141.9190 c6         1 VRK       0.186300
     12 C8         111.6550   103.1330   143.8870 c6         1 VRK      -0.059700
     13 C13        111.7490   104.2060   142.7920 c6         1 VRK      -0.061400
     14 C14        111.9640   107.2260   141.8820 c6         1 VRK      -0.063100
     15 C15        112.0470   108.0340   140.6090 ca         1 VRK      -0.103300
     16 C16        111.1890   107.7950   139.5280 ca         1 VRK      -0.109300
     17 C17        111.2610   108.6100   138.4000 ca         1 VRK      -0.096000
     18 C18        112.1950   109.6360   138.3150 ca         1 VRK      -0.118000
     19 C19        113.0720   109.8560   139.3660 ca         1 VRK       0.121100
     20 C20        112.9930   109.0540   140.5060 ca         1 VRK       0.043100
     21 N1         109.0520   104.8020   138.4990 n8         1 VRK      -1.004200
     22 O1         110.5380   105.7450   140.6480 os         1 VRK      -0.464000
     23 O3         113.8940   109.3550   141.4960 oh         1 VRK      -0.567100
     24 H1         111.0740   105.4370   138.1140 h1         1 VRK       0.039700
     25 H2         109.7860   106.4870   137.5190 h1         1 VRK       0.039700
     26 H3         114.5360   110.8530   140.0860 ho         1 VRK       0.480000
     27 H4         111.8400   106.4000   144.4520 hc         1 VRK       0.043533
     28 H5         110.1060   106.6890   144.5580 hc         1 VRK       0.043533
     29 H6         110.9110   105.3150   146.4670 hc         1 VRK       0.049033
     30 H7         111.8130   103.0270   146.0480 hc         1 VRK       0.039867
     31 H8         112.8460   104.2530   145.3130 hc         1 VRK       0.039867
     32 H9         110.2070   101.6840   144.6000 hc         1 VRK       0.039867
     33 H10        110.1290   101.9820   142.8640 hc         1 VRK       0.039867
     34 H11        108.2000   103.0510   144.0210 hc         1 VRK       0.049033
     35 H12        108.6020   104.9120   145.6250 hc         1 VRK       0.039867
     36 H13        109.3110   103.4160   146.2300 hc         1 VRK       0.039867
     37 H14        109.1890   107.0700   139.8500 h1         1 VRK       0.059700
     38 H15        109.8400   107.0320   142.0880 h1         1 VRK       0.039700
     39 H16        112.4330   102.3830   143.7190 hc         1 VRK       0.049033
     40 H19        111.6240   103.7470   141.8090 hc         1 VRK       0.043533
     41 H20        112.7430   104.6600   142.8150 hc         1 VRK       0.043533
     42 H21        112.8500   106.5910   141.9820 hc         1 VRK       0.054700
     43 H22        111.9600   107.9000   142.7440 hc         1 VRK       0.054700
     44 H23        110.5880   108.4520   137.5690 ha         1 VRK       0.119000
     45 H24        112.2560   110.2660   137.4370 ha         1 VRK       0.133000
     46 H25        108.9890   104.2530   137.6490 hn         1 VRK       0.401500
     47 H26        109.3330   104.1630   139.2350 hn         1 VRK       0.401500
     48 H28        113.8500   108.7100   142.2130 ho         1 VRK       0.475000
     49 C12        109.2830   104.5960   142.9760 c6         1 VRK      -0.061400
     50 H17        108.5040   105.3520   143.1240 hc         1 VRK       0.043533
     51 H18        109.1160   104.1490   141.9940 hc         1 VRK       0.043533
@<TRIPOS>BOND
     1     1    10 1   
     2     1    21 1   
     3     1    24 1   
     4     1    25 1   
     5     2    19 1   
     6     2    26 1   
     7     3     4 1   
     8     3    11 1   
     9     3    13 1   
    10     3    49 1   
    11     4     5 1   
    12     4    27 1   
    13     4    28 1   
    14     5     6 1   
    15     5     9 1   
    16     5    29 1   
    17     6    12 1   
    18     6    30 1   
    19     6    31 1   
    20     7     8 1   
    21     7    12 1   
    22     7    32 1   
    23     7    33 1   
    24     8     9 1   
    25     8    34 1   
    26     8    49 1   
    27     9    35 1   
    28     9    36 1   
    29    10    16 1   
    30    10    22 1   
    31    10    37 1   
    32    11    14 1   
    33    11    22 1   
    34    11    38 1   
    35    12    13 1   
    36    12    39 1   
    37    13    40 1   
    38    13    41 1   
    39    14    15 1   
    40    14    42 1   
    41    14    43 1   
    42    15    16 ar  
    43    15    20 ar  
    44    16    17 ar  
    45    17    18 ar  
    46    17    44 1   
    47    18    19 ar  
    48    18    45 1   
    49    19    20 ar  
    50    20    23 1   
    51    21    46 1   
    52    21    47 1   
    53    23    48 1   
    54    49    50 1   
    55    49    51 1   
@<TRIPOS>SUBSTRUCTURE
     1 VRK         1 TEMP              0 ****  ****    0 ROOT
