@<TRIPOS>MOLECULE
VRL
   28    29     1     0     0
SMALL
No Charge or Current Charge


@<TRIPOS>ATOM
      1 C7          -0.7930    12.4610   -35.3030 ca         1 VRL      -0.144000
      2 C8          -0.5500    13.6190   -36.0660 ca         1 VRL      -0.023300
      3 C9           0.8530    13.8670   -36.6290 c6         1 VRL      -0.074100
      4 O1          -2.0150    14.7260   -39.2320 o          1 VRL      -0.469000
      5 C1          -2.1160    15.7010   -38.4930 c          1 VRL       0.597100
      6 C5          -3.0970    13.1490   -34.9580 ca         1 VRL      -0.202000
      7 C6          -2.0610    12.2260   -34.7550 ca         1 VRL       0.143100
      8 C4          -2.8640    14.3100   -35.7140 ca         1 VRL      -0.053000
      9 C3          -1.5920    14.5540   -36.2710 ca         1 VRL      -0.153300
     10 C2          -1.3700    15.8230   -37.1140 c6         1 VRL       0.172800
     11 O           -2.9010    16.7920   -38.7880 os         1 VRL      -0.458100
     12 C           -3.6330    16.7880   -40.0280 c3         1 VRL       0.153900
     13 N            0.0930    16.1570   -37.2240 n7         1 VRL      -0.840400
     14 C10          0.9050    15.0030   -37.6740 c6         1 VRL       0.150800
     15 O2          -2.2830    11.1000   -34.0200 oh         1 VRL      -0.537100
     16 H1           0.0060    11.7440   -35.1340 ha         1 VRL       0.129000
     17 H2           1.2500    12.9460   -37.0760 hc         1 VRL       0.057700
     18 H3           1.5260    14.1160   -35.7970 hc         1 VRL       0.057700
     19 H4          -4.0840    12.9740   -34.5360 ha         1 VRL       0.116000
     20 H5          -3.6740    15.0210   -35.8690 ha         1 VRL       0.124000
     21 H6          -1.8680    16.6590   -36.6000 h1         1 VRL       0.082700
     22 H7          -4.2130    17.7140   -40.1330 h1         1 VRL       0.049700
     23 H8          -2.9510    16.7150   -40.8850 h1         1 VRL       0.049700
     24 H9          -4.3330    15.9430   -40.0670 h1         1 VRL       0.049700
     25 H10          0.4280    16.4280   -36.2910 hn         1 VRL       0.415000
     26 H12          0.5350    14.6330   -38.6420 h1         1 VRL       0.071200
     27 H13          1.9510    15.3120   -37.8260 h1         1 VRL       0.071200
     28 H14         -3.2170    11.1070   -33.7200 ho         1 VRL       0.464000
@<TRIPOS>BOND
     1     1     2 ar  
     2     1     7 ar  
     3     1    16 1   
     4     2     3 1   
     5     2     9 ar  
     6     3    14 1   
     7     3    17 1   
     8     3    18 1   
     9     4     5 2   
    10     5    10 1   
    11     5    11 1   
    12     6     7 ar  
    13     6     8 ar  
    14     6    19 1   
    15     7    15 1   
    16     8     9 ar  
    17     8    20 1   
    18     9    10 1   
    19    10    13 1   
    20    10    21 1   
    21    11    12 1   
    22    12    22 1   
    23    12    23 1   
    24    12    24 1   
    25    13    14 1   
    26    13    25 1   
    27    14    26 1   
    28    14    27 1   
    29    15    28 1   
@<TRIPOS>SUBSTRUCTURE
     1 VRL         1 TEMP              0 ****  ****    0 ROOT
