@<TRIPOS>MOLECULE
VRL
   28    29     1     0     0
SMALL
abcg2


@<TRIPOS>ATOM
      1 C7          -0.9280    12.5400   -35.3630 ca         1 VRL      -0.144000
      2 C8          -0.5490    13.6730   -36.0830 ca         1 VRL      -0.023300
      3 C9           0.8930    13.8540   -36.4870 c6         1 VRL      -0.074100
      4 O1          -1.4420    15.3870   -39.5480 o          1 VRL      -0.469000
      5 C1          -1.8630    15.8740   -38.5240 c          1 VRL       0.597100
      6 C5          -3.1990    13.3350   -35.2430 ca         1 VRL      -0.202000
      7 C6          -2.2410    12.3660   -34.9450 ca         1 VRL       0.143100
      8 C4          -2.8230    14.4590   -35.9630 ca         1 VRL      -0.053000
      9 C3          -1.5080    14.6440   -36.3910 ca         1 VRL      -0.153300
     10 C2          -1.1270    15.8970   -37.1830 c6         1 VRL       0.172800
     11 O           -3.0680    16.4460   -38.4200 os         1 VRL      -0.458100
     12 C           -3.9080    16.4050   -39.5930 c3         1 VRL       0.153900
     13 N            0.3040    16.0880   -37.4020 n7         1 VRL      -0.840400
     14 C10          1.0370    14.8400   -37.6400 c6         1 VRL       0.150800
     15 O2          -2.5430    11.2320   -34.2450 oh         1 VRL      -0.537100
     16 H1          -0.1920    11.7820   -35.1220 ha         1 VRL       0.129000
     17 H2           1.3280    12.8870   -36.7520 hc         1 VRL       0.057700
     18 H3           1.4580    14.2260   -35.6250 hc         1 VRL       0.057700
     19 H4          -4.2230    13.2060   -34.9130 ha         1 VRL       0.116000
     20 H5          -3.5700    15.2080   -36.1940 ha         1 VRL       0.124000
     21 H6          -1.4950    16.7700   -36.6440 h1         1 VRL       0.082700
     22 H7          -4.8350    16.8910   -39.3030 h1         1 VRL       0.049700
     23 H8          -3.4350    16.9430   -40.4130 h1         1 VRL       0.049700
     24 H9          -4.0920    15.3730   -39.8860 h1         1 VRL       0.049700
     25 H10          0.6880    16.5460   -36.5830 hn         1 VRL       0.415000
     26 H12          0.6590    14.3980   -38.5620 h1         1 VRL       0.071200
     27 H13          2.0870    15.0880   -37.8000 h1         1 VRL       0.071200
     28 H14         -3.4830    11.2290   -34.0180 ho         1 VRL       0.464000
@<TRIPOS>BOND
     1     1     2 ar  
     2     1     7 ar  
     3     1    16 1   
     4     2     3 1   
     5     2     9 ar  
     6     3    14 1   
     7     3    17 1   
     8     3    18 1   
     9     4     5 2   
    10     5    10 1   
    11     5    11 1   
    12     6     7 ar  
    13     6     8 ar  
    14     6    19 1   
    15     7    15 1   
    16     8     9 ar  
    17     8    20 1   
    18     9    10 1   
    19    10    13 1   
    20    10    21 1   
    21    11    12 1   
    22    12    22 1   
    23    12    23 1   
    24    12    24 1   
    25    13    14 1   
    26    13    25 1   
    27    14    26 1   
    28    14    27 1   
    29    15    28 1   
@<TRIPOS>SUBSTRUCTURE
     1 VRL         1 TEMP              0 ****  ****    0 ROOT
