@<TRIPOS>MOLECULE
VRM
   21    22     1     0     0
SMALL
abcg2


@<TRIPOS>ATOM
      1 C4          22.9710   -11.4250    -9.0460 cc         1 VRM      -0.096000
      2 C8          23.1450   -10.1770    -8.3140 ca         1 VRM      -0.071000
      3 C10         22.2500    -8.3100    -7.1100 ca         1 VRM      -0.160000
      4 N12         24.6070    -8.4910    -7.4320 nb         1 VRM      -0.661000
      5 C13         24.4070    -9.6250    -8.0860 ca         1 VRM       0.339900
      6 C11         23.5490    -7.8470    -6.9550 ca         1 VRM       0.339900
      7 C2          22.3420   -13.3600    -9.9180 cd         1 VRM       0.255300
      8 C3          21.9580   -12.3620    -9.0030 cd         1 VRM      -0.211000
      9 C9          22.0460    -9.4900    -7.8030 ca         1 VRM      -0.054000
     10 N5          23.8620   -11.8960    -9.9420 na         1 VRM       0.001800
     11 N7          23.5000   -13.0550   -10.4810 nc         1 VRM      -0.514800
     12 H101        21.4190    -7.7520    -6.7030 ha         1 VRM       0.127000
     13 H131        25.3000   -10.1320    -8.4380 h4         1 VRM       0.015100
     14 H13         22.1870   -15.2140   -10.9690 hc         1 VRM       0.047700
     15 H12         21.4250   -15.2180    -9.3770 hc         1 VRM       0.047700
     16 H11         20.6450   -14.3950   -10.7170 hc         1 VRM       0.047700
     17 H111        23.7410    -6.9210    -6.4260 h4         1 VRM       0.023100
     18 H31         21.0770   -12.3440    -8.3830 ha         1 VRM       0.144000
     19 H91         21.0430    -9.8670    -7.9550 ha         1 VRM       0.127000
     20 H1          24.7050   -11.4470   -10.2620 hn         1 VRM       0.372000
     21 C1          21.6140   -14.6130   -10.2640 c3         1 VRM      -0.120400
@<TRIPOS>BOND
     1     1     2 1   
     2     1     8 2   
     3     1    10 1   
     4     2     5 ar  
     5     2     9 ar  
     6     3     6 ar  
     7     3     9 ar  
     8     3    12 1   
     9     4     5 ar  
    10     4     6 ar  
    11     5    13 1   
    12     6    17 1   
    13     7     8 1   
    14     7    11 2   
    15     7    21 1   
    16     8    18 1   
    17     9    19 1   
    18    10    11 1   
    19    10    20 1   
    20    14    21 1   
    21    15    21 1   
    22    16    21 1   
@<TRIPOS>SUBSTRUCTURE
     1 VRM         1 TEMP              0 ****  ****    0 ROOT
