@<TRIPOS>MOLECULE
VRM
   21    22     1     0     0
SMALL
No Charge or Current Charge


@<TRIPOS>ATOM
      1 C4          23.1130   -11.4760    -9.0180 cc         1 VRM      -0.096000
      2 C8          23.1820   -10.1850    -8.3190 ca         1 VRM      -0.071000
      3 C10         22.1920    -8.3650    -7.0630 ca         1 VRM      -0.160000
      4 N12         24.5480    -8.2890    -7.6030 nb         1 VRM      -0.661000
      5 C13         24.4060    -9.4820    -8.2310 ca         1 VRM       0.339900
      6 C11         23.4510    -7.7450    -7.0300 ca         1 VRM       0.339900
      7 C2          22.3830   -13.3870    -9.8980 cd         1 VRM       0.255300
      8 C3          21.9950   -12.2450    -9.1670 cd         1 VRM      -0.211000
      9 C9          22.0480    -9.6010    -7.7140 ca         1 VRM      -0.054000
     10 N5          24.1190   -12.1900    -9.6650 na         1 VRM       0.001800
     11 N7          23.6670   -13.3830   -10.2150 nc         1 VRM      -0.514800
     12 H101        21.3400    -7.8860    -6.5870 ha         1 VRM       0.127000
     13 H131        25.3120    -9.8860    -8.6790 h4         1 VRM       0.015100
     14 H13         21.4740   -14.6330   -11.4020 hc         1 VRM       0.047700
     15 H12         21.8500   -15.4740    -9.8850 hc         1 VRM       0.047700
     16 H11         20.4670   -14.3700    -9.9690 hc         1 VRM       0.047700
     17 H111        23.5860    -6.7860    -6.5310 h4         1 VRM       0.023100
     18 H31         20.9950   -12.0390    -8.8040 ha         1 VRM       0.144000
     19 H91         21.0750   -10.0830    -7.7410 ha         1 VRM       0.127000
     20 H1          25.0950   -11.9090    -9.7510 hn         1 VRM       0.372000
     21 C1          21.4960   -14.5280   -10.3110 c3         1 VRM      -0.120400
@<TRIPOS>BOND
     1     1     2 1   
     2     1     8 2   
     3     1    10 1   
     4     2     5 ar  
     5     2     9 ar  
     6     3     6 ar  
     7     3     9 ar  
     8     3    12 1   
     9     4     5 ar  
    10     4     6 ar  
    11     5    13 1   
    12     6    17 1   
    13     7     8 1   
    14     7    11 2   
    15     7    21 1   
    16     8    18 1   
    17     9    19 1   
    18    10    11 1   
    19    10    20 1   
    20    14    21 1   
    21    15    21 1   
    22    16    21 1   
@<TRIPOS>SUBSTRUCTURE
     1 VRM         1 TEMP              0 ****  ****    0 ROOT
