@<TRIPOS>MOLECULE
VRN
   47    50     1     0     0
SMALL
abcg2


@<TRIPOS>ATOM
      1 C13         -1.6230     8.9600    12.6550 c5         1 VRN      -0.156000
      2 C14         -2.7720     9.0300    13.6690 c5         1 VRN      -0.058700
      3 C15         -3.5470    10.2860    13.2710 c5         1 VRN      -0.066400
      4 C16         -2.4270    11.2680    12.8960 c5         1 VRN      -0.191400
      5 C17         -1.2020    10.4120    12.6000 c          1 VRN       0.581100
      6 O17         -0.0960    10.8280    12.3580 o          1 VRN      -0.510100
      7 C18         -2.0880     8.6360    11.2200 c3         1 VRN      -0.080100
      8 C12         -0.5890     7.9510    13.1260 c6         1 VRN      -0.051400
      9 C11         -1.2380     6.5820    13.3510 c6         1 VRN      -0.070400
     10 C8          -3.4860     7.7000    13.8120 c6         1 VRN      -0.045700
     11 C9          -2.4640     6.6480    14.2750 c6         1 VRN      -0.013400
     12 C10         -3.1300     5.2990    14.4870 ca         1 VRN      -0.060300
     13 C1          -2.3780     4.1220    14.4980 ca         1 VRN      -0.097000
     14 C2          -2.9590     2.8790    14.6820 ca         1 VRN      -0.099000
     15 C7          -4.6460     7.7280    14.7940 c6         1 VRN      -0.070400
     16 C6          -5.4090     6.4160    14.7180 c6         1 VRN      -0.033100
     17 C5          -4.5120     5.2040    14.6940 ca         1 VRN      -0.054300
     18 C4          -5.1030     3.9530    14.8610 ca         1 VRN      -0.129000
     19 C3          -4.3300     2.8090    14.8440 ca         1 VRN       0.117100
     20 O21         -4.9280     1.5570    14.9310 os         1 VRN      -0.446800
     21 S22         -5.4340     1.0640    16.3910 s6         1 VRN       1.387800
     22 O3          -6.7640     1.5760    16.6260 o          1 VRN      -0.559000
     23 O20         -4.3800     1.3680    17.3330 o          1 VRN      -0.559000
     24 N19         -5.5640    -0.5150    16.0210 n8         1 VRN      -1.028100
     25 H1          -2.3100     9.2490    14.6450 hc         1 VRN       0.049700
     26 H2          -4.1660    10.6670    14.0830 hc         1 VRN       0.049700
     27 H3          -4.2110    10.0940    12.4260 hc         1 VRN       0.049700
     28 H4          -2.1860    11.9380    13.7260 hc         1 VRN       0.072200
     29 H5          -2.6620    11.9080    12.0420 hc         1 VRN       0.072200
     30 H6          -2.5570     7.6560    11.1570 hc         1 VRN       0.041367
     31 H7          -2.8040     9.3590    10.8270 hc         1 VRN       0.041367
     32 H8          -1.2250     8.6330    10.5520 hc         1 VRN       0.041367
     33 H9           0.2280     7.8570    12.4070 hc         1 VRN       0.051700
     34 H10         -0.1460     8.2960    14.0660 hc         1 VRN       0.051700
     35 H11         -1.5240     6.1320    12.3960 hc         1 VRN       0.044200
     36 H12         -0.4820     5.9230    13.7790 hc         1 VRN       0.044200
     37 H13         -3.8870     7.4000    12.8350 hc         1 VRN       0.057700
     38 H14         -2.0990     6.9860    15.2570 hc         1 VRN       0.058700
     39 H15         -1.3060     4.1630    14.3630 ha         1 VRN       0.118000
     40 H16         -2.3560     1.9800    14.6790 ha         1 VRN       0.129000
     41 H17         -4.2640     7.8960    15.8070 hc         1 VRN       0.046700
     42 H18         -5.3270     8.5540    14.5770 hc         1 VRN       0.046700
     43 H19         -6.0190     6.4120    13.8090 hc         1 VRN       0.054700
     44 H20         -6.1120     6.3270    15.5490 hc         1 VRN       0.054700
     45 H21         -6.1770     3.8820    14.9860 ha         1 VRN       0.137000
     46 H22         -4.6980    -1.0380    16.0950 hn         1 VRN       0.489500
     47 H23         -6.3270    -0.9690    16.5100 hn         1 VRN       0.489500
@<TRIPOS>BOND
     1     1     2 1   
     2     1     5 1   
     3     1     7 1   
     4     1     8 1   
     5     2     3 1   
     6     2    10 1   
     7     2    25 1   
     8     3     4 1   
     9     3    26 1   
    10     3    27 1   
    11     4     5 1   
    12     4    28 1   
    13     4    29 1   
    14     5     6 2   
    15     7    30 1   
    16     7    31 1   
    17     7    32 1   
    18     8     9 1   
    19     8    33 1   
    20     8    34 1   
    21     9    11 1   
    22     9    35 1   
    23     9    36 1   
    24    10    11 1   
    25    10    15 1   
    26    10    37 1   
    27    11    12 1   
    28    11    38 1   
    29    12    13 ar  
    30    12    17 ar  
    31    13    14 ar  
    32    13    39 1   
    33    14    19 ar  
    34    14    40 1   
    35    15    16 1   
    36    15    41 1   
    37    15    42 1   
    38    16    17 1   
    39    16    43 1   
    40    16    44 1   
    41    17    18 ar  
    42    18    19 ar  
    43    18    45 1   
    44    19    20 1   
    45    20    21 1   
    46    21    22 2   
    47    21    23 2   
    48    21    24 1   
    49    24    46 1   
    50    24    47 1   
@<TRIPOS>SUBSTRUCTURE
     1 VRN         1 TEMP              0 ****  ****    0 ROOT
