@<TRIPOS>MOLECULE
VRN
   47    50     1     0     0
SMALL
No Charge or Current Charge


@<TRIPOS>ATOM
      1 C13         -1.5770     9.0270    12.6690 c5         1 VRN      -0.156000
      2 C14         -2.7610     9.0390    13.7120 c5         1 VRN      -0.058700
      3 C15         -3.5650    10.3070    13.2970 c5         1 VRN      -0.066400
      4 C16         -2.4320    11.2990    12.8580 c5         1 VRN      -0.191400
      5 C17         -1.1200    10.4910    12.8350 c          1 VRN       0.581100
      6 O17         -0.0180    10.8890    13.1920 o          1 VRN      -0.510100
      7 C18         -1.9210     8.7690    11.1400 c3         1 VRN      -0.080100
      8 C12         -0.5510     7.9500    13.1290 c6         1 VRN      -0.051400
      9 C11         -1.2170     6.5490    13.2910 c6         1 VRN      -0.070400
     10 C8          -3.4880     7.6710    13.7900 c6         1 VRN      -0.045700
     11 C9          -2.4700     6.5680    14.2350 c6         1 VRN      -0.013400
     12 C10         -3.1620     5.1920    14.4230 ca         1 VRN      -0.060300
     13 C1          -2.4090     3.9940    14.4260 ca         1 VRN      -0.097000
     14 C2          -3.0320     2.7500    14.6200 ca         1 VRN      -0.099000
     15 C7          -4.6870     7.6890    14.7620 c6         1 VRN      -0.070400
     16 C6          -5.4590     6.3580    14.6730 c6         1 VRN      -0.033100
     17 C5          -4.5640     5.1130    14.6500 ca         1 VRN      -0.054300
     18 C4          -5.1780     3.8590    14.8400 ca         1 VRN      -0.129000
     19 C3          -4.4130     2.6820    14.8350 ca         1 VRN       0.117100
     20 O21         -5.0060     1.4570    15.0050 os         1 VRN      -0.446800
     21 S22         -5.6990     1.1190    16.4470 s6         1 VRN       1.387800
     22 O3          -7.1200     1.4660    16.4290 o          1 VRN      -0.559000
     23 O20         -4.8090     1.5130    17.5360 o          1 VRN      -0.559000
     24 N19         -5.5970    -0.4950    16.3490 n8         1 VRN      -1.028100
     25 H1          -2.3650     9.2020    14.7240 hc         1 VRN       0.049700
     26 H2          -4.1660    10.7050    14.1230 hc         1 VRN       0.049700
     27 H3          -4.2550    10.0940    12.4710 hc         1 VRN       0.049700
     28 H4          -2.3240    12.1840    13.4940 hc         1 VRN       0.072200
     29 H5          -2.6420    11.6290    11.8350 hc         1 VRN       0.072200
     30 H6          -2.3540     7.7770    10.9740 hc         1 VRN       0.041367
     31 H7          -2.6410     9.4930    10.7430 hc         1 VRN       0.041367
     32 H8          -1.0200     8.8400    10.5190 hc         1 VRN       0.041367
     33 H9           0.2900     7.8910    12.4230 hc         1 VRN       0.051700
     34 H10         -0.1150     8.2460    14.0940 hc         1 VRN       0.051700
     35 H11         -1.4960     6.1410    12.3100 hc         1 VRN       0.044200
     36 H12         -0.4500     5.8750    13.6910 hc         1 VRN       0.044200
     37 H13         -3.8670     7.4230    12.7880 hc         1 VRN       0.057700
     38 H14         -2.0990     6.8520    15.2310 hc         1 VRN       0.058700
     39 H15         -1.3330     4.0060    14.2860 ha         1 VRN       0.118000
     40 H16         -2.4390     1.8390    14.6110 ha         1 VRN       0.129000
     41 H17         -4.3350     7.8500    15.7900 hc         1 VRN       0.046700
     42 H18         -5.3680     8.5180    14.5290 hc         1 VRN       0.046700
     43 H19         -6.0710     6.3620    13.7600 hc         1 VRN       0.054700
     44 H20         -6.1670     6.2960    15.5100 hc         1 VRN       0.054700
     45 H21         -6.2540     3.8040    14.9850 ha         1 VRN       0.137000
     46 H22         -5.0000    -0.5570    15.5290 hn         1 VRN       0.489500
     47 H23         -4.9610    -0.6590    17.1240 hn         1 VRN       0.489500
@<TRIPOS>BOND
     1     1     2 1   
     2     1     5 1   
     3     1     7 1   
     4     1     8 1   
     5     2     3 1   
     6     2    10 1   
     7     2    25 1   
     8     3     4 1   
     9     3    26 1   
    10     3    27 1   
    11     4     5 1   
    12     4    28 1   
    13     4    29 1   
    14     5     6 2   
    15     7    30 1   
    16     7    31 1   
    17     7    32 1   
    18     8     9 1   
    19     8    33 1   
    20     8    34 1   
    21     9    11 1   
    22     9    35 1   
    23     9    36 1   
    24    10    11 1   
    25    10    15 1   
    26    10    37 1   
    27    11    12 1   
    28    11    38 1   
    29    12    13 ar  
    30    12    17 ar  
    31    13    14 ar  
    32    13    39 1   
    33    14    19 ar  
    34    14    40 1   
    35    15    16 1   
    36    15    41 1   
    37    15    42 1   
    38    16    17 1   
    39    16    43 1   
    40    16    44 1   
    41    17    18 ar  
    42    18    19 ar  
    43    18    45 1   
    44    19    20 1   
    45    20    21 1   
    46    21    22 2   
    47    21    23 2   
    48    21    24 1   
    49    24    46 1   
    50    24    47 1   
@<TRIPOS>SUBSTRUCTURE
     1 VRN         1 TEMP              0 ****  ****    0 ROOT
