@<TRIPOS>MOLECULE
VRO
   34    35     1     0     0
SMALL
bcc


@<TRIPOS>ATOM
      1 OAB          1.0050     2.5220     0.0050 o          1 VRO      -0.793800
      2 CAO          2.2110     2.2530    -0.0160 c          1 VRO       0.928800
      3 OAE          3.1740     3.0350    -0.1190 o          1 VRO      -0.793800
      4 CAR          2.6180     0.7680     0.0790 cc         1 VRO       0.026400
      5 NAL          3.9550     0.5950    -0.1570 ns         1 VRO      -0.448100
      6 CAT          4.6060    -0.5960    -0.1710 c          1 VRO       0.814500
      7 OAC          5.7980    -0.7160    -0.3890 o          1 VRO      -0.685500
      8 NAM          3.7820    -1.6610     0.0820 ns         1 VRO      -0.605500
      9 CAU          2.4250    -1.6190     0.3440 c          1 VRO       0.720700
     10 OAD          1.8200    -2.6600     0.5430 o          1 VRO      -0.664500
     11 CAS          1.8200    -0.2930     0.3540 cd         1 VRO      -0.293400
     12 CAK          0.3450    -0.2360     0.6160 c3         1 VRO       0.017800
     13 CAJ         -0.4750    -0.3960    -0.6730 c3         1 VRO      -0.027100
     14 CAP         -1.9500    -0.2460    -0.4320 ca         1 VRO      -0.087300
     15 CAF         -2.5000     1.0140    -0.1800 ca         1 VRO      -0.092000
     16 CAH         -3.8500     1.1760     0.0640 ca         1 VRO      -0.196000
     17 CAQ         -4.7030     0.0690     0.0640 ca         1 VRO       0.112100
     18 OAN         -6.0070     0.3190     0.3040 os         1 VRO      -0.326900
     19 CAA         -6.9150    -0.7630     0.2730 c3         1 VRO       0.131700
     20 CAI         -4.1730    -1.1940    -0.1800 ca         1 VRO      -0.196000
     21 CAG         -2.8090    -1.3350    -0.4230 ca         1 VRO      -0.092000
     22 H2           4.2150    -2.5760     0.0670 hn         1 VRO       0.318500
     23 H4           0.0750    -1.0350     1.3090 hc         1 VRO       0.057200
     24 H5           0.0850     0.7060     1.0890 hc         1 VRO       0.057200
     25 H6          -0.1390     0.3560    -1.3900 hc         1 VRO       0.050700
     26 H7          -0.2680    -1.3730    -1.1160 hc         1 VRO       0.050700
     27 H8          -1.8530     1.8840    -0.1790 ha         1 VRO       0.146500
     28 H9          -4.2580     2.1620     0.2530 ha         1 VRO       0.127500
     29 H10         -6.6930    -1.5080     1.0420 h1         1 VRO       0.030700
     30 H11         -7.9010    -0.3470     0.4650 h1         1 VRO       0.030700
     31 H12         -6.9270    -1.2600    -0.7010 h1         1 VRO       0.030700
     32 H13         -4.8000    -2.0760    -0.1880 ha         1 VRO       0.127500
     33 H14         -2.4180    -2.3270    -0.6150 ha         1 VRO       0.146500
     34 H15          4.4790     1.4470    -0.3210 hn         1 VRO       0.375500
@<TRIPOS>BOND
     1     1     2 1   
     2     2     3 1   
     3     2     4 1   
     4     4     5 1   
     5     4    11 2   
     6     5     6 1   
     7     5    34 1   
     8     6     7 2   
     9     6     8 1   
    10     8     9 1   
    11     8    22 1   
    12     9    10 2   
    13     9    11 1   
    14    11    12 1   
    15    12    13 1   
    16    12    23 1   
    17    12    24 1   
    18    13    14 1   
    19    13    25 1   
    20    13    26 1   
    21    14    15 ar  
    22    14    21 ar  
    23    15    16 ar  
    24    15    27 1   
    25    16    17 ar  
    26    16    28 1   
    27    17    18 1   
    28    17    20 ar  
    29    18    19 1   
    30    19    29 1   
    31    19    30 1   
    32    19    31 1   
    33    20    21 ar  
    34    20    32 1   
    35    21    33 1   
@<TRIPOS>SUBSTRUCTURE
     1 VRO         1 TEMP              0 ****  ****    0 ROOT
