@<TRIPOS>MOLECULE
VRO
   34    35     1     0     0
SMALL
No Charge or Current Charge


@<TRIPOS>ATOM
      1 OAB          1.1880     2.6490     0.1320 o          1 VRO      -0.688500
      2 CAO          2.3450     2.2740     0.0060 c          1 VRO       0.718200
      3 OAE          3.2570     3.0670    -0.2010 o          1 VRO      -0.688500
      4 CAR          2.7060     0.7960     0.0860 cc         1 VRO       0.026400
      5 NAL          4.0550     0.5060    -0.1100 ns         1 VRO      -0.494600
      6 CAT          4.6230    -0.7240    -0.1110 c          1 VRO       0.605000
      7 OAC          5.8120    -0.8980    -0.2920 o          1 VRO      -0.610000
      8 NAM          3.7530    -1.7360     0.1040 ns         1 VRO      -0.471500
      9 CAU          2.4100    -1.6640     0.3200 c          1 VRO       0.578200
     10 OAD          1.7620    -2.6840     0.4930 o          1 VRO      -0.589000
     11 CAS          1.8460    -0.2790     0.3190 cd         1 VRO      -0.293400
     12 CAK          0.3460    -0.1980     0.5750 c3         1 VRO       0.017800
     13 CAJ         -0.4770    -0.2080    -0.7300 c3         1 VRO      -0.027100
     14 CAP         -1.9740    -0.1140    -0.4680 ca         1 VRO      -0.087300
     15 CAF         -2.5810     1.1410    -0.2780 ca         1 VRO      -0.074000
     16 CAH         -3.9630     1.2290    -0.0320 ca         1 VRO      -0.178000
     17 CAQ         -4.7500     0.0680     0.0290 ca         1 VRO       0.112100
     18 OAN         -6.1000     0.2160     0.2740 os         1 VRO      -0.350100
     19 CAA         -6.9920    -0.9100     0.3550 c3         1 VRO       0.154900
     20 CAI         -4.1440    -1.1930    -0.1590 ca         1 VRO      -0.178000
     21 CAG         -2.7610    -1.2800    -0.4060 ca         1 VRO      -0.074000
     22 H2           4.1490    -2.6620     0.1040 hn         1 VRO       0.318500
     23 H4           0.0080    -1.0320     1.2020 hc         1 VRO       0.057200
     24 H5           0.0930     0.6910     1.1630 hc         1 VRO       0.057200
     25 H6          -0.1550     0.6260    -1.3660 hc         1 VRO       0.050700
     26 H7          -0.2460    -1.1220    -1.2910 hc         1 VRO       0.050700
     27 H8          -1.9820     2.0490    -0.3190 ha         1 VRO       0.128500
     28 H9          -4.4240     2.2020     0.1140 ha         1 VRO       0.109500
     29 H10         -6.6930    -1.5860     1.1660 h1         1 VRO       0.030700
     30 H11         -8.0150    -0.5700     0.5560 h1         1 VRO       0.030700
     31 H12         -6.9980    -1.4710    -0.5880 h1         1 VRO       0.030700
     32 H13         -4.7230    -2.1110    -0.1180 ha         1 VRO       0.109500
     33 H14         -2.3010    -2.2560    -0.5470 ha         1 VRO       0.128500
     34 H15          4.6990     1.2740    -0.2780 hn         1 VRO       0.489000
@<TRIPOS>BOND
     1     1     2 1   
     2     2     3 1   
     3     2     4 1   
     4     4     5 1   
     5     4    11 2   
     6     5     6 1   
     7     5    34 1   
     8     6     7 2   
     9     6     8 1   
    10     8     9 1   
    11     8    22 1   
    12     9    10 2   
    13     9    11 1   
    14    11    12 1   
    15    12    13 1   
    16    12    23 1   
    17    12    24 1   
    18    13    14 1   
    19    13    25 1   
    20    13    26 1   
    21    14    15 ar  
    22    14    21 ar  
    23    15    16 ar  
    24    15    27 1   
    25    16    17 ar  
    26    16    28 1   
    27    17    18 1   
    28    17    20 ar  
    29    18    19 1   
    30    19    29 1   
    31    19    30 1   
    32    19    31 1   
    33    20    21 ar  
    34    20    32 1   
    35    21    33 1   
@<TRIPOS>SUBSTRUCTURE
     1 VRO         1 TEMP              0 ****  ****    0 ROOT
