@<TRIPOS>MOLECULE
VRP
   66    65     1     0     0
SMALL
bcc


@<TRIPOS>ATOM
      1 C10        192.8770   181.7320   192.1060 c3         1 VRP      -0.067400
      2 C11        191.8080   181.7380   193.1920 c3         1 VRP      -0.072400
      3 C12        192.3490   181.5280   194.6040 c3         1 VRP      -0.073400
      4 C13        193.3290   182.6020   195.0620 c3         1 VRP      -0.076400
      5 C14        193.7140   182.4620   196.5350 c3         1 VRP      -0.033200
      6 C01        194.0360   182.5610   182.0070 c3         1 VRP      -0.088100
      7 C02        193.1250   182.1990   183.1720 c3         1 VRP      -0.074400
      8 C03        193.8080   182.3440   184.5250 c3         1 VRP      -0.076400
      9 C04        192.9000   181.9950   185.6970 c3         1 VRP      -0.076400
     10 C05        193.5880   182.1370   187.0490 c3         1 VRP      -0.065400
     11 C06        192.6530   181.8060   188.2000 c3         1 VRP      -0.182400
     12 C07        193.2560   181.9090   189.5790 c          1 VRP       0.568100
     13 C09        192.2690   181.8530   190.7190 c3         1 VRP      -0.180400
     14 C15        194.6710   183.5240   196.9730 c2         1 VRP      -0.198200
     15 C16        195.8890   183.3060   197.4620 c2         1 VRP      -0.132200
     16 C17        196.8570   184.3710   197.8680 c3         1 VRP      -0.043200
     17 C18        197.2550   184.3010   199.3430 c3         1 VRP       0.147100
     18 C19        196.0390   184.4820   200.2670 c3         1 VRP       0.151100
     19 C20        196.3770   184.4820   201.8100 c3         1 VRP      -0.000800
     20 C21        195.2200   183.8640   202.5950 c3         1 VRP       0.140400
     21 C23        197.6620   183.6460   202.0940 c          1 VRP       0.911600
     22 N26        196.5370   185.8830   202.2040 n8         1 VRP      -0.907800
     23 O08        194.4480   182.0290   189.7580 o          1 VRP      -0.515100
     24 O22        194.0420   184.6230   202.4260 oh         1 VRP      -0.598800
     25 O24        197.5260   182.4480   202.3740 o          1 VRP      -0.820800
     26 O25        198.7560   184.2620   201.9950 o          1 VRP      -0.820800
     27 O27        195.3540   185.6630   199.9570 oh         1 VRP      -0.630800
     28 O28        198.2580   185.2670   199.5540 oh         1 VRP      -0.650800
     29 H1         193.4620   180.8090   192.1750 hc         1 VRP       0.056200
     30 H2         193.5790   182.5520   192.2690 hc         1 VRP       0.056200
     31 H3         191.2610   182.6870   193.1540 hc         1 VRP       0.030200
     32 H4         191.0720   180.9570   192.9760 hc         1 VRP       0.030200
     33 H5         191.5060   181.4960   195.3010 hc         1 VRP       0.036700
     34 H6         192.8320   180.5470   194.6670 hc         1 VRP       0.036700
     35 H7         194.2380   182.5690   194.4540 hc         1 VRP       0.039700
     36 H8         192.8880   183.5920   194.8960 hc         1 VRP       0.039700
     37 H9         192.8010   182.5170   197.1390 hc         1 VRP       0.037700
     38 H10        194.1460   181.4730   196.7140 hc         1 VRP       0.037700
     39 H11        193.5280   182.4470   181.0490 hc         1 VRP       0.030700
     40 H12        194.3760   183.5960   182.0800 hc         1 VRP       0.030700
     41 H13        194.9230   181.9250   181.9880 hc         1 VRP       0.030700
     42 H14        192.2320   182.8310   183.1490 hc         1 VRP       0.034700
     43 H15        192.7700   181.1710   183.0540 hc         1 VRP       0.034700
     44 H16        194.6980   181.7050   184.5510 hc         1 VRP       0.039700
     45 H17        194.1700   183.3720   184.6400 hc         1 VRP       0.039700
     46 H18        192.0130   182.6370   185.6710 hc         1 VRP       0.033700
     47 H19        192.5350   180.9690   185.5810 hc         1 VRP       0.033700
     48 H20        194.4640   181.4840   187.0790 hc         1 VRP       0.052200
     49 H21        193.9630   183.1590   187.1600 hc         1 VRP       0.052200
     50 H22        191.7580   182.4380   188.1680 hc         1 VRP       0.055700
     51 H23        192.2720   180.7820   188.0990 hc         1 VRP       0.055700
     52 H24        191.6580   182.7620   190.6500 hc         1 VRP       0.054700
     53 H25        191.5670   181.0340   190.5270 hc         1 VRP       0.054700
     54 H26        194.3300   184.5510   196.8570 ha         1 VRP       0.121000
     55 H27        196.2280   182.2780   197.5800 ha         1 VRP       0.106000
     56 H28        197.7740   184.2640   197.2780 hc         1 VRP       0.049700
     57 H29        196.4480   185.3590   197.6430 hc         1 VRP       0.049700
     58 H30        197.6440   183.2840   199.5200 h1         1 VRP       0.032700
     59 H31        195.3810   183.6230   200.0790 h1         1 VRP       0.040700
     60 H32        195.0820   182.8330   202.2580 h1         1 VRP       0.025700
     61 H33        195.5040   183.8190   203.6570 h1         1 VRP       0.025700
     62 H34        196.1960   186.0420   203.1440 hn         1 VRP       0.351800
     63 H35        197.5210   186.1230   202.2040 hn         1 VRP       0.351800
     64 H37        193.3550   184.2110   202.9560 ho         1 VRP       0.375000
     65 H39        195.6100   186.2540   200.6990 ho         1 VRP       0.443000
     66 H40        198.6330   185.0650   200.4360 ho         1 VRP       0.460000
@<TRIPOS>BOND
     1     1     2 1   
     2     1    13 1   
     3     1    29 1   
     4     1    30 1   
     5     2     3 1   
     6     2    31 1   
     7     2    32 1   
     8     3     4 1   
     9     3    33 1   
    10     3    34 1   
    11     4     5 1   
    12     4    35 1   
    13     4    36 1   
    14     5    14 1   
    15     5    37 1   
    16     5    38 1   
    17     6     7 1   
    18     6    39 1   
    19     6    40 1   
    20     6    41 1   
    21     7     8 1   
    22     7    42 1   
    23     7    43 1   
    24     8     9 1   
    25     8    44 1   
    26     8    45 1   
    27     9    10 1   
    28     9    46 1   
    29     9    47 1   
    30    10    11 1   
    31    10    48 1   
    32    10    49 1   
    33    11    12 1   
    34    11    50 1   
    35    11    51 1   
    36    12    13 1   
    37    12    23 2   
    38    13    52 1   
    39    13    53 1   
    40    14    15 2   
    41    14    54 1   
    42    15    16 1   
    43    15    55 1   
    44    16    17 1   
    45    16    56 1   
    46    16    57 1   
    47    17    18 1   
    48    17    28 1   
    49    17    58 1   
    50    18    19 1   
    51    18    27 1   
    52    18    59 1   
    53    19    20 1   
    54    19    21 1   
    55    19    22 1   
    56    20    24 1   
    57    20    60 1   
    58    20    61 1   
    59    21    25 1   
    60    21    26 1   
    61    22    62 1   
    62    22    63 1   
    63    24    64 1   
    64    27    65 1   
    65    28    66 1   
@<TRIPOS>SUBSTRUCTURE
     1 VRP         1 TEMP              0 ****  ****    0 ROOT
