@<TRIPOS>MOLECULE
VRP
   66    65     1     0     0
SMALL
No Charge or Current Charge


@<TRIPOS>ATOM
      1 C10        191.8860   179.7710   191.9310 c3         1 VRP      -0.067400
      2 C11        191.0480   180.0440   193.2020 c3         1 VRP      -0.072400
      3 C12        191.8780   180.2120   194.4970 c3         1 VRP      -0.073400
      4 C13        192.8350   181.4270   194.4900 c3         1 VRP      -0.076400
      5 C14        193.5320   181.6610   195.8470 c3         1 VRP      -0.033200
      6 C01        196.2550   185.3480   187.3850 c3         1 VRP      -0.088100
      7 C02        194.9750   184.5400   187.0950 c3         1 VRP      -0.074400
      8 C03        194.7840   183.3480   188.0580 c3         1 VRP      -0.076400
      9 C04        193.4980   182.5410   187.7750 c3         1 VRP      -0.076400
     10 C05        193.3110   181.3480   188.7380 c3         1 VRP      -0.065400
     11 C06        192.0100   180.5550   188.4660 c3         1 VRP      -0.182400
     12 C07        191.8700   179.3510   189.4120 c          1 VRP       0.568100
     13 C09        191.0120   179.5390   190.6750 c3         1 VRP      -0.180400
     14 C15        194.4910   182.8340   195.8010 c2         1 VRP      -0.248200
     15 C16        195.8000   182.7780   196.0910 c2         1 VRP      -0.182200
     16 C17        196.7630   183.9500   196.0280 c3         1 VRP      -0.043200
     17 C18        197.1900   184.4560   197.4310 c3         1 VRP       0.170300
     18 C19        196.0000   185.0630   198.2800 c3         1 VRP       0.174300
     19 C20        196.3740   185.6230   199.7120 c3         1 VRP      -0.000800
     20 C21        195.2260   185.3130   200.7380 c3         1 VRP       0.163600
     21 C23        197.6890   184.8910   200.2190 c          1 VRP       0.701000
     22 N26        196.5130   187.1560   199.6290 n8         1 VRP      -1.018200
     23 O08        192.4120   178.2810   189.1650 o          1 VRP      -0.515100
     24 O22        194.0890   186.1780   200.5500 oh         1 VRP      -0.661000
     25 O24        197.5980   183.8780   200.8990 o          1 VRP      -0.715500
     26 O25        198.7610   185.4290   199.9630 o          1 VRP      -0.715500
     27 O27        195.4240   186.1820   197.6000 oh         1 VRP      -0.693000
     28 O28        198.2760   185.3960   197.2890 oh         1 VRP      -0.713000
     29 H1         192.5240   178.8930   192.0970 hc         1 VRP       0.056200
     30 H2         192.5540   180.6210   191.7480 hc         1 VRP       0.056200
     31 H3         190.4400   180.9440   193.0470 hc         1 VRP       0.030200
     32 H4         190.3450   179.2140   193.3460 hc         1 VRP       0.030200
     33 H5         191.1810   180.3150   195.3380 hc         1 VRP       0.036700
     34 H6         192.4540   179.2960   194.6790 hc         1 VRP       0.036700
     35 H7         193.6060   181.2830   193.7230 hc         1 VRP       0.039700
     36 H8         192.2730   182.3290   194.2160 hc         1 VRP       0.039700
     37 H9         192.7690   181.8400   196.6150 hc         1 VRP       0.037700
     38 H10        194.0620   180.7460   196.1410 hc         1 VRP       0.037700
     39 H11        196.3490   186.1820   186.6780 hc         1 VRP       0.030700
     40 H12        196.2310   185.7610   188.4010 hc         1 VRP       0.030700
     41 H13        197.1440   184.7140   187.2880 hc         1 VRP       0.030700
     42 H14        194.1070   185.2090   187.1670 hc         1 VRP       0.034700
     43 H15        195.0110   184.1710   186.0630 hc         1 VRP       0.034700
     44 H16        195.6520   182.6810   187.9820 hc         1 VRP       0.039700
     45 H17        194.7550   183.7210   189.0900 hc         1 VRP       0.039700
     46 H18        192.6290   183.2080   187.8560 hc         1 VRP       0.033700
     47 H19        193.5240   182.1700   186.7430 hc         1 VRP       0.033700
     48 H20        194.1730   180.6740   188.6480 hc         1 VRP       0.052200
     49 H21        193.3030   181.7210   189.7700 hc         1 VRP       0.052200
     50 H22        191.1720   181.2450   188.6150 hc         1 VRP       0.055700
     51 H23        192.0270   180.1960   187.4300 hc         1 VRP       0.055700
     52 H24        190.3610   180.4130   190.5550 hc         1 VRP       0.054700
     53 H25        190.4060   178.6390   190.8320 hc         1 VRP       0.054700
     54 H26        194.0330   183.7810   195.5040 ha         1 VRP       0.171000
     55 H27        196.2610   181.8330   196.3880 ha         1 VRP       0.156000
     56 H28        197.6570   183.6450   195.4700 hc         1 VRP       0.049700
     57 H29        196.3220   184.7790   195.4600 hc         1 VRP       0.049700
     58 H30        197.5600   183.5740   197.9710 h1         1 VRP       0.032700
     59 H31        195.2510   184.2670   198.3980 h1         1 VRP       0.040700
     60 H32        194.9240   184.2600   200.6490 h1         1 VRP       0.025700
     61 H33        195.6140   185.4540   201.7560 h1         1 VRP       0.025700
     62 H34        195.7740   187.5530   200.2290 hn         1 VRP       0.407000
     63 H35        197.3820   187.4280   200.1100 hn         1 VRP       0.407000
     64 H37        193.4030   185.8910   201.1920 ho         1 VRP       0.414000
     65 H39        195.7310   186.8870   198.2410 ho         1 VRP       0.482000
     66 H40        198.5590   185.6040   198.2220 ho         1 VRP       0.499000
@<TRIPOS>BOND
     1     1     2 1   
     2     1    13 1   
     3     1    29 1   
     4     1    30 1   
     5     2     3 1   
     6     2    31 1   
     7     2    32 1   
     8     3     4 1   
     9     3    33 1   
    10     3    34 1   
    11     4     5 1   
    12     4    35 1   
    13     4    36 1   
    14     5    14 1   
    15     5    37 1   
    16     5    38 1   
    17     6     7 1   
    18     6    39 1   
    19     6    40 1   
    20     6    41 1   
    21     7     8 1   
    22     7    42 1   
    23     7    43 1   
    24     8     9 1   
    25     8    44 1   
    26     8    45 1   
    27     9    10 1   
    28     9    46 1   
    29     9    47 1   
    30    10    11 1   
    31    10    48 1   
    32    10    49 1   
    33    11    12 1   
    34    11    50 1   
    35    11    51 1   
    36    12    13 1   
    37    12    23 2   
    38    13    52 1   
    39    13    53 1   
    40    14    15 2   
    41    14    54 1   
    42    15    16 1   
    43    15    55 1   
    44    16    17 1   
    45    16    56 1   
    46    16    57 1   
    47    17    18 1   
    48    17    28 1   
    49    17    58 1   
    50    18    19 1   
    51    18    27 1   
    52    18    59 1   
    53    19    20 1   
    54    19    21 1   
    55    19    22 1   
    56    20    24 1   
    57    20    60 1   
    58    20    61 1   
    59    21    25 1   
    60    21    26 1   
    61    22    62 1   
    62    22    63 1   
    63    24    64 1   
    64    27    65 1   
    65    28    66 1   
@<TRIPOS>SUBSTRUCTURE
     1 VRP         1 TEMP              0 ****  ****    0 ROOT
