@<TRIPOS>MOLECULE
VRR
   32    32     1     0     0
SMALL
abcg2


@<TRIPOS>ATOM
      1 C7          20.5440     7.6140   -36.0820 ca         1 VRR      -0.096000
      2 C8          19.3350     7.0970   -35.6290 ca         1 VRR      -0.112500
      3 C9          18.1740     7.8620   -35.7110 ca         1 VRR      -0.106000
      4 O1          26.5660    11.6130   -36.7370 o          1 VRR      -0.495000
      5 C1          28.5260    10.1090   -37.7840 c3         1 VRR       0.167600
      6 C6          20.6110     8.8980   -36.6270 ca         1 VRR      -0.091300
      7 C4          23.8870    10.7400   -36.3260 c3         1 VRR       0.168800
      8 C3          25.0130     9.7610   -36.6360 c3         1 VRR      -0.139400
      9 C2          26.3190    10.4450   -36.9500 c          1 VRR       0.589100
     10 O           27.2020     9.5920   -37.4840 os         1 VRR      -0.460100
     11 C           29.3230     8.9860   -38.4020 c3         1 VRR      -0.096100
     12 N           22.6610    10.0410   -35.9410 n7         1 VRR      -0.865400
     13 C11         19.4420     9.6540   -36.7070 ca         1 VRR      -0.096000
     14 C10         18.2300     9.1420   -36.2520 ca         1 VRR      -0.112500
     15 H1          21.4460     7.0170   -36.0180 ha         1 VRR       0.112500
     16 H2          19.2980     6.0980   -35.2140 ha         1 VRR       0.112500
     17 H3          17.2320     7.4590   -35.3600 ha         1 VRR       0.112000
     18 H4          28.9730    10.4640   -36.8550 h1         1 VRR       0.049200
     19 H5          28.4200    10.9550   -38.4620 h1         1 VRR       0.049200
     20 H6          22.5360     8.6820   -37.5230 h1         1 VRR       0.037700
     21 H7          21.7510    10.2260   -37.8610 h1         1 VRR       0.037700
     22 H8          24.1850    11.3770   -35.4920 h1         1 VRR       0.045200
     23 H9          23.7290    11.3960   -37.1950 h1         1 VRR       0.045200
     24 H10         24.7620     9.1050   -37.4700 hc         1 VRR       0.078700
     25 H11         25.1860     9.1100   -35.7730 hc         1 VRR       0.078700
     26 H12         30.3270     9.3440   -38.6380 hc         1 VRR       0.047700
     27 H13         29.4120     8.1430   -37.7150 hc         1 VRR       0.047700
     28 H14         28.8570     8.6390   -39.3250 hc         1 VRR       0.047700
     29 H15         22.0500    10.7000   -35.4700 hn         1 VRR       0.418000
     30 H17         19.4820    10.6510   -37.1320 ha         1 VRR       0.112500
     31 H18         17.3300     9.7420   -36.3230 ha         1 VRR       0.112500
     32 C5          21.9260     9.4720   -37.0790 c3         1 VRR       0.200100
@<TRIPOS>BOND
     1     1     2 ar  
     2     1     6 ar  
     3     1    15 1   
     4     2     3 ar  
     5     2    16 1   
     6     3    14 ar  
     7     3    17 1   
     8     4     9 2   
     9     5    10 1   
    10     5    11 1   
    11     5    18 1   
    12     5    19 1   
    13     6    13 ar  
    14     6    32 1   
    15     7     8 1   
    16     7    12 1   
    17     7    22 1   
    18     7    23 1   
    19     8     9 1   
    20     8    24 1   
    21     8    25 1   
    22     9    10 1   
    23    11    26 1   
    24    11    27 1   
    25    11    28 1   
    26    12    29 1   
    27    12    32 1   
    28    13    14 ar  
    29    13    30 1   
    30    14    31 1   
    31    20    32 1   
    32    21    32 1   
@<TRIPOS>SUBSTRUCTURE
     1 VRR         1 TEMP              0 ****  ****    0 ROOT
