@<TRIPOS>MOLECULE
VRR
   32    32     1     0     0
SMALL
No Charge or Current Charge


@<TRIPOS>ATOM
      1 C7          20.4440     7.8380   -35.5170 ca         1 VRR      -0.096000
      2 C8          19.1040     7.5570   -35.1980 ca         1 VRR      -0.112500
      3 C9          18.0660     8.1570   -35.9300 ca         1 VRR      -0.106000
      4 O1          27.1490    10.7330   -35.3390 o          1 VRR      -0.495000
      5 C1          28.3780    10.1950   -37.7400 c3         1 VRR       0.167600
      6 C6          20.7550     8.7200   -36.5710 ca         1 VRR      -0.091300
      7 C4          24.1040    10.5580   -36.3420 c3         1 VRR       0.168800
      8 C3          25.1550     9.4990   -35.9640 c3         1 VRR      -0.139400
      9 C2          26.5560    10.0610   -36.1720 c          1 VRR       0.589100
     10 O           27.0620     9.7280   -37.4020 os         1 VRR      -0.460100
     11 C           28.6970     9.6900   -39.1560 c3         1 VRR      -0.096100
     12 N           22.7330    10.0880   -36.0470 n7         1 VRR      -0.865400
     13 C11         19.7090     9.3190   -37.3020 ca         1 VRR      -0.096000
     14 C10         18.3690     9.0380   -36.9820 ca         1 VRR      -0.112500
     15 H1          21.2430     7.3720   -34.9440 ha         1 VRR       0.112500
     16 H2          18.8710     6.8750   -34.3820 ha         1 VRR       0.112500
     17 H3          17.0280     7.9400   -35.6830 ha         1 VRR       0.112000
     18 H4          29.1260     9.8070   -37.0360 h1         1 VRR       0.049200
     19 H5          28.4210    11.2930   -37.7250 h1         1 VRR       0.049200
     20 H6          22.7930     8.0970   -36.8050 h1         1 VRR       0.037700
     21 H7          22.2680     9.3180   -37.9740 h1         1 VRR       0.037700
     22 H8          24.3110    11.4680   -35.7610 h1         1 VRR       0.045200
     23 H9          24.2090    10.8200   -37.4050 h1         1 VRR       0.045200
     24 H10         25.0180     8.6320   -36.6190 hc         1 VRR       0.078700
     25 H11         25.0260     9.2230   -34.9120 hc         1 VRR       0.078700
     26 H12         29.6960    10.0220   -39.4620 hc         1 VRR       0.047700
     27 H13         28.6740     8.5940   -39.1900 hc         1 VRR       0.047700
     28 H14         27.9690    10.0790   -39.8780 hc         1 VRR       0.047700
     29 H15         22.0980    10.8900   -36.1470 hn         1 VRR       0.418000
     30 H17         19.9340    10.0020   -38.1180 ha         1 VRR       0.112500
     31 H18         17.5660     9.5030   -37.5500 ha         1 VRR       0.112500
     32 C5          22.2070     9.0180   -36.9180 c3         1 VRR       0.200100
@<TRIPOS>BOND
     1     1     2 ar  
     2     1     6 ar  
     3     1    15 1   
     4     2     3 ar  
     5     2    16 1   
     6     3    14 ar  
     7     3    17 1   
     8     4     9 2   
     9     5    10 1   
    10     5    11 1   
    11     5    18 1   
    12     5    19 1   
    13     6    13 ar  
    14     6    32 1   
    15     7     8 1   
    16     7    12 1   
    17     7    22 1   
    18     7    23 1   
    19     8     9 1   
    20     8    24 1   
    21     8    25 1   
    22     9    10 1   
    23    11    26 1   
    24    11    27 1   
    25    11    28 1   
    26    12    29 1   
    27    12    32 1   
    28    13    14 ar  
    29    13    30 1   
    30    14    31 1   
    31    20    32 1   
    32    21    32 1   
@<TRIPOS>SUBSTRUCTURE
     1 VRR         1 TEMP              0 ****  ****    0 ROOT
