@<TRIPOS>MOLECULE
VRS
  109   114     1     0     0
SMALL
bcc


@<TRIPOS>ATOM
      1 N1           3.6490     0.7940    -2.0250 ns         1 VRS      -0.547900
      2 C1           3.2560     2.1840    -1.9260 c3         1 VRS       0.035700
      3 C2           2.8050     2.4210    -0.4780 c          1 VRS       0.643100
      4 O1           3.4200     1.8880     0.4340 o          1 VRS      -0.611100
      5 C3           4.4280     3.0990    -2.2840 c3         1 VRS      -0.080400
      6 C4           4.8630     2.9540    -3.7330 c3         1 VRS      -0.088100
      7 N2           1.6910     3.1540    -0.2770 n          1 VRS      -0.465800
      8 C5           1.2020     3.4440     1.0630 c5         1 VRS       0.020700
      9 C6          -0.2460     2.9510     1.2730 c          1 VRS       0.660100
     10 O2          -1.0770     3.7150     1.7350 o          1 VRS      -0.602100
     11 C7           1.2600     4.9690     1.0790 c5         1 VRS      -0.082400
     12 C8           0.7790     5.3480    -0.3250 c5         1 VRS      -0.099400
     13 C9           1.1470     4.1400    -1.2130 c5         1 VRS       0.088000
     14 N3          -0.5840     1.6810     0.9210 n          1 VRS      -0.467800
     15 C10         -2.0220     1.4110     0.8250 c3         1 VRS       0.038700
     16 C11         -2.3800    -0.0770     0.8720 c          1 VRS       0.643100
     17 O3          -3.1070    -0.5590     0.0280 o          1 VRS      -0.546100
     18 C12          0.3660     0.7060     0.4270 c3         1 VRS       0.068300
     19 C13         -2.6160     2.0480    -0.4430 c3         1 VRS      -0.034100
     20 C14         -4.1060     2.2490    -0.3720 ca         1 VRS      -0.088300
     21 C15         -4.6390     3.1630     0.5360 ca         1 VRS      -0.116000
     22 C16         -6.0080     3.3790     0.6060 ca         1 VRS      -0.133500
     23 C17         -6.8660     2.6880    -0.2400 ca         1 VRS      -0.127000
     24 C18         -6.3440     1.7800    -1.1520 ca         1 VRS      -0.133500
     25 C19         -4.9740     1.5580    -1.2120 ca         1 VRS      -0.116000
     26 N5          -1.8340    -0.8530     1.8530 n          1 VRS      -0.467800
     27 C22         -2.1910    -2.2640     1.8950 c6         1 VRS       0.018700
     28 C23         -2.2370    -2.9480     0.5250 c          1 VRS       0.690100
     29 O4          -3.1180    -3.7370     0.2500 o          1 VRS      -0.579100
     30 C24         -1.5090    -0.3370     3.1730 c6         1 VRS       0.098000
     31 C25         -2.7270    -0.4410     4.0920 c6         1 VRS      -0.223400
     32 C26         -3.3820    -1.8020     4.0490 c          1 VRS       0.570100
     33 C27         -3.4770    -2.4660     2.6930 c6         1 VRS      -0.196400
     34 O5          -3.8470    -2.3160     5.0400 o          1 VRS      -0.509100
     35 N6          -1.1740    -2.7280    -0.2840 ns         1 VRS      -0.549900
     36 C28         -1.2060    -3.1930    -1.6550 c3         1 VRS       0.106000
     37 C29          0.1630    -3.3080    -2.3060 c          1 VRS       0.649100
     38 O6           0.3010    -3.8810    -3.3550 o          1 VRS      -0.520000
     39 C30         -2.0960    -2.3410    -2.5430 ca         1 VRS      -0.113300
     40 C31         -1.6980    -1.0630    -2.9260 ca         1 VRS      -0.093000
     41 C32         -2.5250    -0.2800    -3.7160 ca         1 VRS      -0.133500
     42 C33         -3.7630    -0.7620    -4.1230 ca         1 VRS      -0.118000
     43 C34         -4.1630    -2.0350    -3.7430 ca         1 VRS      -0.133500
     44 C35         -3.3300    -2.8220    -2.9580 ca         1 VRS      -0.093000
     45 O7           1.1410    -2.7070    -1.6490 os         1 VRS      -0.429900
     46 C36          2.4700    -2.7520    -2.2150 c3         1 VRS       0.159100
     47 C37          3.2390    -1.5560    -1.6730 c3         1 VRS       0.027700
     48 C38          2.7590    -0.2010    -2.2130 c          1 VRS       0.649100
     49 O8           1.6610    -0.0440    -2.7170 o          1 VRS      -0.588100
     50 C39          3.1420    -4.0620    -1.8510 c3         1 VRS      -0.119100
     51 N7           3.1900    -1.5140    -0.2290 ns         1 VRS      -0.534900
     52 C40          4.2050    -1.1210     0.5440 c          1 VRS       0.598600
     53 O9           5.3240    -0.8310     0.1050 o          1 VRS      -0.662100
     54 C41          3.9100    -1.0600     1.9950 ca         1 VRS       0.242800
     55 N8           2.6810    -1.3920     2.3820 nb         1 VRS      -0.646000
     56 C42          2.3720    -1.3480     3.6600 ca         1 VRS       0.351200
     57 C43          3.2930    -0.9570     4.6320 ca         1 VRS      -0.179300
     58 C44          4.5680    -0.6060     4.2490 ca         1 VRS      -0.152000
     59 C45          4.9050    -0.6530     2.8930 ca         1 VRS       0.123800
     60 O10          6.1360    -0.3180     2.5190 oh         1 VRS      -0.491100
     61 HN1          4.5160     0.5530    -1.5640 hn         1 VRS       0.338500
     62 H1           2.4360     2.3510    -2.6260 h1         1 VRS       0.094700
     63 H31A         5.2630     2.8890    -1.6090 hc         1 VRS       0.054200
     64 H32A         4.1370     4.1360    -2.0900 hc         1 VRS       0.054200
     65 H41          5.6930     3.6240    -3.9540 hc         1 VRS       0.041367
     66 H42A         5.1870     1.9380    -3.9570 hc         1 VRS       0.041367
     67 H43A         4.0470     3.2020    -4.4140 hc         1 VRS       0.041367
     68 H5           1.8510     2.9860     1.8120 h1         1 VRS       0.106700
     69 H71          0.6720     5.4240     1.8720 hc         1 VRS       0.068700
     70 H72          2.3010     5.2620     1.2240 hc         1 VRS       0.068700
     71 H81         -0.2980     5.5100    -0.3330 hc         1 VRS       0.061700
     72 H82          1.2470     6.2620    -0.6850 hc         1 VRS       0.061700
     73 H91          0.2750     3.7420    -1.7340 h1         1 VRS       0.056200
     74 H92          1.8860     4.4030    -1.9670 h1         1 VRS       0.056200
     75 H2          -2.4990     1.8750     1.6940 h1         1 VRS       0.093700
     76 H121         0.3970     0.6620    -0.6620 h1         1 VRS       0.054033
     77 H122         1.3580     0.8970     0.8160 h1         1 VRS       0.054033
     78 H123         0.1140    -0.2740     0.8180 h1         1 VRS       0.054033
     79 H131        -2.1460     3.0240    -0.5780 hc         1 VRS       0.062200
     80 H132        -2.3530     1.4490    -1.3160 hc         1 VRS       0.062200
     81 H15         -3.9740     3.7180     1.1880 ha         1 VRS       0.141000
     82 H16         -6.4050     4.0930     1.3170 ha         1 VRS       0.129000
     83 H17         -7.9340     2.8590    -0.1910 ha         1 VRS       0.128000
     84 H18         -7.0050     1.2380    -1.8160 ha         1 VRS       0.129000
     85 H19         -4.5710     0.8380    -1.9130 ha         1 VRS       0.141000
     86 H22         -1.3740    -2.7610     2.4330 h1         1 VRS       0.073700
     87 H241        -1.1590     0.6900     3.1180 h1         1 VRS       0.066200
     88 H242        -0.6820    -0.9250     3.5750 h1         1 VRS       0.066200
     89 H251        -3.4810     0.2870     3.7700 hc         1 VRS       0.079200
     90 H252        -2.4560    -0.1910     5.1170 hc         1 VRS       0.079200
     91 H271        -4.3170    -2.0120     2.1560 hc         1 VRS       0.098200
     92 H272        -3.7010    -3.5230     2.8250 hc         1 VRS       0.098200
     93 HN6         -0.5440    -1.9770    -0.0590 hn         1 VRS       0.322500
     94 H28         -1.6030    -4.2100    -1.6450 h1         1 VRS       0.107700
     95 H31         -0.7320    -0.6730    -2.6280 ha         1 VRS       0.142500
     96 H32         -2.2050     0.7090    -4.0160 ha         1 VRS       0.130000
     97 H33         -4.4100    -0.1490    -4.7380 ha         1 VRS       0.128000
     98 H34         -5.1250    -2.4190    -4.0590 ha         1 VRS       0.130000
     99 H35         -3.6450    -3.8160    -2.6660 ha         1 VRS       0.142500
    100 H36          2.4060    -2.6520    -3.3000 h1         1 VRS       0.088700
    101 H37          4.2800    -1.6970    -1.9740 h1         1 VRS       0.097700
    102 H391         3.1980    -4.1980    -0.7710 hc         1 VRS       0.056033
    103 H392         2.6110    -4.9100    -2.2790 hc         1 VRS       0.056033
    104 H393         4.1560    -4.0750    -2.2490 hc         1 VRS       0.056033
    105 HN7          2.3210    -1.7030     0.2530 hn         1 VRS       0.361500
    106 H42          1.3650    -1.6350     3.9380 h4         1 VRS       0.020100
    107 H43          3.0040    -0.9330     5.6740 ha         1 VRS       0.147000
    108 H44          5.3080    -0.2990     4.9770 ha         1 VRS       0.159000
    109 H10          6.1840    -0.4120     1.5410 ho         1 VRS       0.484000
@<TRIPOS>BOND
     1     1     2 1   
     2     1    48 1   
     3     1    61 1   
     4     2     3 1   
     5     2     5 1   
     6     2    62 1   
     7     3     4 2   
     8     3     7 1   
     9     5     6 1   
    10     5    63 1   
    11     5    64 1   
    12     6    65 1   
    13     6    66 1   
    14     6    67 1   
    15     7     8 1   
    16     7    13 1   
    17     8     9 1   
    18     8    11 1   
    19     8    68 1   
    20     9    10 2   
    21     9    14 1   
    22    11    12 1   
    23    11    69 1   
    24    11    70 1   
    25    12    13 1   
    26    12    71 1   
    27    12    72 1   
    28    13    73 1   
    29    13    74 1   
    30    14    15 1   
    31    14    18 1   
    32    15    16 1   
    33    15    19 1   
    34    15    75 1   
    35    16    17 2   
    36    16    26 1   
    37    18    76 1   
    38    18    77 1   
    39    18    78 1   
    40    19    20 1   
    41    19    79 1   
    42    19    80 1   
    43    20    21 ar  
    44    20    25 ar  
    45    21    22 ar  
    46    21    81 1   
    47    22    23 ar  
    48    22    82 1   
    49    23    24 ar  
    50    23    83 1   
    51    24    25 ar  
    52    24    84 1   
    53    25    85 1   
    54    26    27 1   
    55    26    30 1   
    56    27    28 1   
    57    27    33 1   
    58    27    86 1   
    59    28    29 2   
    60    28    35 1   
    61    30    31 1   
    62    30    87 1   
    63    30    88 1   
    64    31    32 1   
    65    31    89 1   
    66    31    90 1   
    67    32    33 1   
    68    32    34 2   
    69    33    91 1   
    70    33    92 1   
    71    35    36 1   
    72    35    93 1   
    73    36    37 1   
    74    36    39 1   
    75    36    94 1   
    76    37    38 2   
    77    37    45 1   
    78    39    40 ar  
    79    39    44 ar  
    80    40    41 ar  
    81    40    95 1   
    82    41    42 ar  
    83    41    96 1   
    84    42    43 ar  
    85    42    97 1   
    86    43    44 ar  
    87    43    98 1   
    88    44    99 1   
    89    45    46 1   
    90    46    47 1   
    91    46    50 1   
    92    46   100 1   
    93    47    48 1   
    94    47    51 1   
    95    47   101 1   
    96    48    49 2   
    97    50   102 1   
    98    50   103 1   
    99    50   104 1   
   100    51    52 1   
   101    51   105 1   
   102    52    53 2   
   103    52    54 1   
   104    54    55 ar  
   105    54    59 ar  
   106    55    56 ar  
   107    56    57 ar  
   108    56   106 1   
   109    57    58 ar  
   110    57   107 1   
   111    58    59 ar  
   112    58   108 1   
   113    59    60 1   
   114    60   109 1   
@<TRIPOS>SUBSTRUCTURE
     1 VRS         1 TEMP              0 ****  ****    0 ROOT
