@<TRIPOS>MOLECULE
VRS
  109   114     1     0     0
SMALL
No Charge or Current Charge


@<TRIPOS>ATOM
      1 N1           3.1650     0.3020    -1.0770 ns         1 VRS      -0.480900
      2 C1           3.0250     1.7290    -1.4330 c3         1 VRS       0.035700
      3 C2           2.0170     2.4020    -0.4520 c          1 VRS       0.576100
      4 O1           1.8070     1.9300     0.6600 o          1 VRS      -0.611100
      5 C3           4.4000     2.4540    -1.4050 c3         1 VRS      -0.080400
      6 C4           5.4050     1.9840    -2.4780 c3         1 VRS      -0.088100
      7 N2           1.3340     3.5710    -0.8610 n          1 VRS      -0.398800
      8 C5           0.4400     4.3240     0.0620 c5         1 VRS       0.020700
      9 C6          -1.0120     3.8130     0.4310 c          1 VRS       0.593100
     10 O2          -1.7230     4.4200     1.2250 o          1 VRS      -0.602100
     11 C7           0.3570     5.7130    -0.6430 c5         1 VRS      -0.082400
     12 C8           0.4320     5.3410    -2.1430 c5         1 VRS      -0.099400
     13 C9           1.5510     4.2660    -2.1540 c5         1 VRS       0.088000
     14 N3          -1.4350     2.5420    -0.0770 n          1 VRS      -0.400800
     15 C10         -2.6360     1.8890     0.5400 c3         1 VRS       0.038700
     16 C11         -2.4810     0.3440     0.6950 c          1 VRS       0.576100
     17 O3          -3.2590    -0.4210     0.1450 o          1 VRS      -0.546100
     18 C12         -1.0630     2.0260    -1.4190 c3         1 VRS       0.068300
     19 C13         -3.9520     2.3010    -0.1830 c3         1 VRS      -0.034100
     20 C14         -5.1900     2.0670     0.6780 ca         1 VRS      -0.088300
     21 C15         -5.4220     2.8690     1.8140 ca         1 VRS      -0.098000
     22 C16         -6.5570     2.6540     2.6150 ca         1 VRS      -0.115500
     23 C17         -7.4680     1.6380     2.2850 ca         1 VRS      -0.109000
     24 C18         -7.2450     0.8380     1.1520 ca         1 VRS      -0.115500
     25 C19         -6.1100     1.0520     0.3500 ca         1 VRS      -0.098000
     26 N5          -1.3740    -0.1740     1.4320 n          1 VRS      -0.400800
     27 C22         -1.0750    -1.6490     1.5710 c6         1 VRS       0.018700
     28 C23         -0.9880    -2.5670     0.3030 c          1 VRS       0.623100
     29 O4          -0.4920    -3.6830     0.3640 o          1 VRS      -0.579100
     30 C24         -0.8310     0.5680     2.5950 c6         1 VRS       0.098000
     31 C25         -1.6130     0.1400     3.8610 c6         1 VRS      -0.223400
     32 C26         -1.7370    -1.3880     3.9910 c          1 VRS       0.570100
     33 C27         -2.0100    -2.1670     2.6950 c6         1 VRS      -0.196400
     34 O5          -1.5480    -1.9580     5.0550 o          1 VRS      -0.509100
     35 N6          -1.3080    -2.0000    -0.9070 ns         1 VRS      -0.482900
     36 C28         -1.1930    -2.6250    -2.2380 c3         1 VRS       0.106000
     37 C29          0.1980    -3.2660    -2.5380 c          1 VRS       0.600100
     38 O6           0.3640    -4.0840    -3.4350 o          1 VRS      -0.471000
     39 C30         -1.5640    -1.5760    -3.2850 ca         1 VRS      -0.113300
     40 C31         -0.6470    -0.5640    -3.6440 ca         1 VRS      -0.075000
     41 C32         -1.0060     0.4200    -4.5800 ca         1 VRS      -0.115500
     42 C33         -2.2840     0.4050    -5.1620 ca         1 VRS      -0.100000
     43 C34         -3.2030    -0.5960    -4.8060 ca         1 VRS      -0.115500
     44 C35         -2.8460    -1.5820    -3.8700 ca         1 VRS      -0.075000
     45 O7           1.2280    -2.6900    -1.8260 os         1 VRS      -0.453100
     46 C36          2.5790    -3.1580    -2.0250 c3         1 VRS       0.182300
     47 C37          3.5140    -2.1470    -1.3160 c3         1 VRS       0.027700
     48 C38          3.3990    -0.7370    -1.9540 c          1 VRS       0.582100
     49 O8           3.4880    -0.5530    -3.1610 o          1 VRS      -0.588100
     50 C39          2.7100    -4.5880    -1.4410 c3         1 VRS      -0.119100
     51 N7           3.2740    -2.1200     0.1530 ns         1 VRS      -0.467900
     52 C40          4.2510    -1.9880     1.1150 c          1 VRS       0.531600
     53 O9           5.4220    -1.7710     0.8150 o          1 VRS      -0.662100
     54 C41          3.7760    -2.1120     2.5590 ca         1 VRS       0.177500
     55 N8           2.4500    -2.3650     2.7960 nb         1 VRS      -0.646000
     56 C42          2.0390    -2.4790     4.0800 ca         1 VRS       0.285900
     57 C43          2.9080    -2.3440     5.1760 ca         1 VRS      -0.096000
     58 C44          4.2710    -2.0820     4.9430 ca         1 VRS      -0.134000
     59 C45          4.7170    -1.9650     3.6170 ca         1 VRS       0.189100
     60 O10          6.0430    -1.7130     3.3770 oh         1 VRS      -0.530100
     61 HN1          3.0650     0.0480    -0.1010 hn         1 VRS       0.338500
     62 H1           2.5970     1.7960    -2.4410 h1         1 VRS       0.094700
     63 H31A         4.8530     2.3280    -0.4140 hc         1 VRS       0.054200
     64 H32A         4.2510     3.5310    -1.5330 hc         1 VRS       0.054200
     65 H41          6.3070     2.6080    -2.4530 hc         1 VRS       0.041367
     66 H42A         5.7110     0.9460    -2.3030 hc         1 VRS       0.041367
     67 H43A         4.9670     2.0570    -3.4800 hc         1 VRS       0.041367
     68 H5           0.9370     4.4400     1.0340 h1         1 VRS       0.106700
     69 H71         -0.5460     6.2800    -0.3900 hc         1 VRS       0.068700
     70 H72          1.2130     6.3390    -0.3600 hc         1 VRS       0.068700
     71 H81         -0.5230     4.9440    -2.5030 hc         1 VRS       0.061700
     72 H82          0.6780     6.2000    -2.7780 hc         1 VRS       0.061700
     73 H91          1.4560     3.5960    -3.0190 h1         1 VRS       0.056200
     74 H92          2.5400     4.7410    -2.1850 h1         1 VRS       0.056200
     75 H2          -2.7270     2.2530     1.5690 h1         1 VRS       0.093700
     76 H121        -0.8620     2.8450    -2.1140 h1         1 VRS       0.054033
     77 H122        -0.1870     1.3720    -1.3430 h1         1 VRS       0.054033
     78 H123        -1.8810     1.4320    -1.8460 h1         1 VRS       0.054033
     79 H131        -3.8980     3.3690    -0.4290 hc         1 VRS       0.062200
     80 H132        -4.0380     1.7810    -1.1440 hc         1 VRS       0.062200
     81 H15         -4.7220     3.6610     2.0760 ha         1 VRS       0.123000
     82 H16         -6.7290     3.2760     3.4910 ha         1 VRS       0.111000
     83 H17         -8.3460     1.4710     2.9050 ha         1 VRS       0.110000
     84 H18         -7.9500     0.0500     0.8950 ha         1 VRS       0.111000
     85 H19         -5.9440     0.4240    -0.5220 ha         1 VRS       0.123000
     86 H22         -0.0490    -1.7280     1.9550 h1         1 VRS       0.073700
     87 H241        -0.8840     1.6560     2.4560 h1         1 VRS       0.066200
     88 H242         0.2350     0.3240     2.7170 h1         1 VRS       0.066200
     89 H251        -2.6350     0.5130     3.7150 hc         1 VRS       0.079200
     90 H252        -1.2060     0.5770     4.7830 hc         1 VRS       0.079200
     91 H271        -3.0400    -1.9450     2.3870 hc         1 VRS       0.098200
     92 H272        -1.9060    -3.2440     2.8770 hc         1 VRS       0.098200
     93 HN6         -1.7590    -1.0960    -0.8540 hn         1 VRS       0.322500
     94 H28         -1.9130    -3.4520    -2.2830 h1         1 VRS       0.107700
     95 H31          0.3430    -0.5300    -3.1930 ha         1 VRS       0.124500
     96 H32         -0.2950     1.1970    -4.8510 ha         1 VRS       0.112000
     97 H33         -2.5630     1.1680    -5.8850 ha         1 VRS       0.110000
     98 H34         -4.1950    -0.6060    -5.2530 ha         1 VRS       0.112000
     99 H35         -3.5710    -2.3460    -3.5950 ha         1 VRS       0.124500
    100 H36          2.8360    -3.1780    -3.0950 h1         1 VRS       0.088700
    101 H37          4.5490    -2.4670    -1.4890 h1         1 VRS       0.097700
    102 H391         2.2950    -4.6420    -0.4270 hc         1 VRS       0.056033
    103 H392         2.1890    -5.3240    -2.0630 hc         1 VRS       0.056033
    104 H393         3.7640    -4.8860    -1.3950 hc         1 VRS       0.056033
    105 HN7          2.3430    -2.3300     0.5030 hn         1 VRS       0.361500
    106 H42          0.9820    -2.6880     4.2330 h4         1 VRS       0.020100
    107 H43          2.5260    -2.4440     6.1880 ha         1 VRS       0.129000
    108 H44          4.9660    -1.9740     5.7720 ha         1 VRS       0.141000
    109 H10          6.1470    -1.6740     2.3870 ho         1 VRS       0.523000
@<TRIPOS>BOND
     1     1     2 1   
     2     1    48 1   
     3     1    61 1   
     4     2     3 1   
     5     2     5 1   
     6     2    62 1   
     7     3     4 2   
     8     3     7 1   
     9     5     6 1   
    10     5    63 1   
    11     5    64 1   
    12     6    65 1   
    13     6    66 1   
    14     6    67 1   
    15     7     8 1   
    16     7    13 1   
    17     8     9 1   
    18     8    11 1   
    19     8    68 1   
    20     9    10 2   
    21     9    14 1   
    22    11    12 1   
    23    11    69 1   
    24    11    70 1   
    25    12    13 1   
    26    12    71 1   
    27    12    72 1   
    28    13    73 1   
    29    13    74 1   
    30    14    15 1   
    31    14    18 1   
    32    15    16 1   
    33    15    19 1   
    34    15    75 1   
    35    16    17 2   
    36    16    26 1   
    37    18    76 1   
    38    18    77 1   
    39    18    78 1   
    40    19    20 1   
    41    19    79 1   
    42    19    80 1   
    43    20    21 ar  
    44    20    25 ar  
    45    21    22 ar  
    46    21    81 1   
    47    22    23 ar  
    48    22    82 1   
    49    23    24 ar  
    50    23    83 1   
    51    24    25 ar  
    52    24    84 1   
    53    25    85 1   
    54    26    27 1   
    55    26    30 1   
    56    27    28 1   
    57    27    33 1   
    58    27    86 1   
    59    28    29 2   
    60    28    35 1   
    61    30    31 1   
    62    30    87 1   
    63    30    88 1   
    64    31    32 1   
    65    31    89 1   
    66    31    90 1   
    67    32    33 1   
    68    32    34 2   
    69    33    91 1   
    70    33    92 1   
    71    35    36 1   
    72    35    93 1   
    73    36    37 1   
    74    36    39 1   
    75    36    94 1   
    76    37    38 2   
    77    37    45 1   
    78    39    40 ar  
    79    39    44 ar  
    80    40    41 ar  
    81    40    95 1   
    82    41    42 ar  
    83    41    96 1   
    84    42    43 ar  
    85    42    97 1   
    86    43    44 ar  
    87    43    98 1   
    88    44    99 1   
    89    45    46 1   
    90    46    47 1   
    91    46    50 1   
    92    46   100 1   
    93    47    48 1   
    94    47    51 1   
    95    47   101 1   
    96    48    49 2   
    97    50   102 1   
    98    50   103 1   
    99    50   104 1   
   100    51    52 1   
   101    51   105 1   
   102    52    53 2   
   103    52    54 1   
   104    54    55 ar  
   105    54    59 ar  
   106    55    56 ar  
   107    56    57 ar  
   108    56   106 1   
   109    57    58 ar  
   110    57   107 1   
   111    58    59 ar  
   112    58   108 1   
   113    59    60 1   
   114    60   109 1   
@<TRIPOS>SUBSTRUCTURE
     1 VRS         1 TEMP              0 ****  ****    0 ROOT
