@<TRIPOS>MOLECULE
VRT
   49    51     1     0     0
SMALL
bcc


@<TRIPOS>ATOM
      1 C           -2.2900     0.2080    -0.9860 c          1 VRT       0.630100
      2 N           -3.4540     2.1950    -1.9220 n8         1 VRT      -0.874800
      3 O           -2.6170    -0.5490    -1.8890 o          1 VRT      -0.625100
      4 N1           2.8150     3.2550     0.3880 nb         1 VRT      -0.829000
      5 C2           1.5990     2.8990     0.7910 ca         1 VRT       0.714900
      6 N3           1.0930     1.6810     0.8890 nb         1 VRT      -0.780000
      7 C4           1.9770     0.7520     0.5240 ca         1 VRT       0.448800
      8 C5           3.2700     0.9660     0.0780 ca         1 VRT      -0.225200
      9 C6           3.6890     2.3090     0.0190 ca         1 VRT       0.784200
     10 N6           4.9060     2.6680    -0.3850 nv         1 VRT      -0.950500
     11 N7           3.8820    -0.2230    -0.2230 nc         1 VRT      -0.559100
     12 C8           2.9810    -1.1270     0.0330 cd         1 VRT       0.422700
     13 N9           1.8060    -0.5980     0.4930 na         1 VRT      -0.274000
     14 CA          -3.0340     1.5150    -0.7160 c3         1 VRT       0.094500
     15 CB          -4.2390     1.2020     0.1770 c3         1 VRT      -0.067400
     16 CD          -6.1490     2.1160     1.5620 c3         1 VRT      -0.089100
     17 CG          -4.9520     2.4500     0.6820 c3         1 VRT      -0.071400
     18 C1           0.5820    -1.2850     0.8640 c5         1 VRT       0.253800
     19 N10         -1.2880    -0.0650    -0.1360 ns         1 VRT      -0.547900
     20 C7          -0.4780    -1.2460    -0.2460 c5         1 VRT       0.080700
     21 C3          -1.1880    -2.5850    -0.0420 c5         1 VRT       0.110100
     22 O3          -2.1070    -2.4360     1.0030 oh         1 VRT      -0.570800
     23 C9           0.0020    -3.4680     0.3410 c5         1 VRT       0.098100
     24 O4           0.8620    -2.6220     1.1080 os         1 VRT      -0.377600
     25 C10          0.7190    -4.0300    -0.8730 c3         1 VRT       0.117400
     26 O5           1.8890    -4.6790    -0.4420 oh         1 VRT      -0.583800
     27 HN          -2.6470     2.4640    -2.4710 hn         1 VRT       0.351800
     28 HNA         -3.9870     1.5550    -2.4990 hn         1 VRT       0.351800
     29 HN6          5.1610     3.6400    -0.4310 hn         1 VRT       0.453800
     30 HN6A         5.5770     1.9830    -0.6850 hn         1 VRT       0.453800
     31 H8           3.1170    -2.1920    -0.0810 h5         1 VRT       0.084800
     32 HA          -2.3720     2.1910    -0.1620 h1         1 VRT       0.067700
     33 HB          -4.9410     0.5730    -0.3810 hc         1 VRT       0.049700
     34 HBA         -3.9030     0.6040     1.0300 hc         1 VRT       0.049700
     35 HD          -6.8880     1.5270     1.0160 hc         1 VRT       0.031033
     36 HDA         -5.8500     1.5370     2.4370 hc         1 VRT       0.031033
     37 HDB         -6.6450     3.0190     1.9170 hc         1 VRT       0.031033
     38 HG          -4.2420     3.0640     1.2440 hc         1 VRT       0.046200
     39 HGA         -5.2730     3.0530    -0.1690 hc         1 VRT       0.046200
     40 H1           0.2130    -0.7930     1.7730 h2         1 VRT       0.106700
     41 HN10        -0.9730     0.6610     0.4940 hn         1 VRT       0.350500
     42 H2           0.0210    -1.2720    -1.2210 h1         1 VRT       0.072700
     43 H3          -1.6640    -2.9360    -0.9630 h1         1 VRT       0.078700
     44 HO3         -2.5930    -3.2600     1.1030 ho         1 VRT       0.411000
     45 H4          -0.3040    -4.2960     0.9890 h1         1 VRT       0.092700
     46 H5           0.0270    -4.7180    -1.3760 h1         1 VRT       0.028200
     47 H5'A         0.9460    -3.2300    -1.5920 h1         1 VRT       0.028200
     48 HO5          2.3640    -4.9870    -1.2190 ho         1 VRT       0.409000
     49 H6           0.9420     3.7140     1.0720 h5         1 VRT       0.046100
@<TRIPOS>BOND
     1     1     3 2   
     2     1    14 1   
     3     1    19 1   
     4     2    14 1   
     5     2    27 1   
     6     2    28 1   
     7     4     5 ar  
     8     4     9 ar  
     9     5     6 ar  
    10     5    49 1   
    11     6     7 ar  
    12     7     8 ar  
    13     7    13 1   
    14     8     9 ar  
    15     8    11 1   
    16     9    10 1   
    17    10    29 1   
    18    10    30 1   
    19    11    12 2   
    20    12    13 1   
    21    12    31 1   
    22    13    18 1   
    23    14    15 1   
    24    14    32 1   
    25    15    17 1   
    26    15    33 1   
    27    15    34 1   
    28    16    17 1   
    29    16    35 1   
    30    16    36 1   
    31    16    37 1   
    32    17    38 1   
    33    17    39 1   
    34    18    20 1   
    35    18    24 1   
    36    18    40 1   
    37    19    20 1   
    38    19    41 1   
    39    20    21 1   
    40    20    42 1   
    41    21    22 1   
    42    21    23 1   
    43    21    43 1   
    44    22    44 1   
    45    23    24 1   
    46    23    25 1   
    47    23    45 1   
    48    25    26 1   
    49    25    46 1   
    50    25    47 1   
    51    26    48 1   
@<TRIPOS>SUBSTRUCTURE
     1 VRT         1 TEMP              0 ****  ****    0 ROOT
