@<TRIPOS>MOLECULE
VRT
   49    51     1     0     0
SMALL
No Charge or Current Charge


@<TRIPOS>ATOM
      1 C           -1.8170     0.4760    -0.1990 c          1 VRT       0.563100
      2 N           -2.3280     2.9600     0.3240 n8         1 VRT      -0.985200
      3 O           -1.2680     0.5820    -1.2900 o          1 VRT      -0.625100
      4 N1           2.6990     3.4650    -0.2920 nb         1 VRT      -0.303000
      5 C2           1.7250     3.1060     0.5770 ca         1 VRT       0.188900
      6 N3           1.2950     1.8480     0.8360 nb         1 VRT      -0.254000
      7 C4           1.9090     0.8620     0.1500 ca         1 VRT       0.120500
      8 C5           2.9120     1.1180    -0.7510 ca         1 VRT      -0.094600
      9 C6           3.2940     2.4620    -0.9540 ca         1 VRT       0.455900
     10 N6           4.2750     2.8200    -1.8260 nv         1 VRT      -1.060900
     11 N7           3.4060    -0.0410    -1.3400 nc         1 VRT      -0.559100
     12 C8           2.6590    -0.9940    -0.7490 cd         1 VRT       0.422700
     13 N9           1.7200    -0.4940     0.1700 na         1 VRT      -0.303300
     14 CA          -2.8350     1.5460     0.3400 c3         1 VRT       0.094500
     15 CB          -4.1830     1.4400    -0.4210 c3         1 VRT      -0.067400
     16 CD          -6.6800     2.0660    -0.5300 c3         1 VRT      -0.089100
     17 CG          -5.3440     2.2400     0.2190 c3         1 VRT      -0.071400
     18 C1           0.7650    -1.2620     0.9600 c5         1 VRT       0.306300
     19 N10         -1.5630    -0.5740     0.6640 ns         1 VRT      -0.480900
     20 C7          -0.5900    -1.6120     0.2660 c5         1 VRT       0.080700
     21 C3          -0.9850    -2.9100     1.0360 c5         1 VRT       0.133300
     22 O3          -1.4890    -2.6540     2.3670 oh         1 VRT      -0.693000
     23 C9           0.4150    -3.6100     1.0430 c5         1 VRT       0.121300
     24 O4           1.3520    -2.5350     1.3340 os         1 VRT      -0.424000
     25 C10          0.7840    -4.2940    -0.3110 c3         1 VRT       0.140600
     26 O5           1.9980    -5.0560    -0.1940 oh         1 VRT      -0.706000
     27 HN          -1.4470     3.0080     0.8500 hn         1 VRT       0.407000
     28 HNA         -2.0370     3.1890    -0.6350 hn         1 VRT       0.407000
     29 HN6          4.2970     3.7850    -2.1450 hn         1 VRT       0.509000
     30 HN6A         4.5820     2.1130    -2.4890 hn         1 VRT       0.509000
     31 H8           2.7430    -2.0580    -0.9370 h5         1 VRT       0.084800
     32 HA          -3.0310     1.2860     1.3900 h1         1 VRT       0.067700
     33 HB          -4.0420     1.7650    -1.4600 hc         1 VRT       0.049700
     34 HBA         -4.4750     0.3830    -0.4630 hc         1 VRT       0.049700
     35 HD          -6.5910     2.4090    -1.5680 hc         1 VRT       0.031033
     36 HDA         -6.9870     1.0130    -0.5380 hc         1 VRT       0.031033
     37 HDB         -7.4700     2.6490    -0.0430 hc         1 VRT       0.031033
     38 HG          -5.4760     1.9200     1.2600 hc         1 VRT       0.046200
     39 HGA         -5.0910     3.3070     0.2420 hc         1 VRT       0.046200
     40 H1           0.5790    -0.6820     1.8730 h2         1 VRT       0.106700
     41 HN10        -2.0650    -0.6070     1.5450 hn         1 VRT       0.350500
     42 H2          -0.4970    -1.7670    -0.8170 h1         1 VRT       0.072700
     43 H3          -1.7210    -3.4930     0.4620 h1         1 VRT       0.078700
     44 HO3         -1.7410    -3.5220     2.7620 ho         1 VRT       0.510000
     45 H4           0.4760    -4.3690     1.8340 h1         1 VRT       0.092700
     46 H5          -0.0430    -4.9570    -0.6000 h1         1 VRT       0.028200
     47 H5'A         0.8860    -3.5350    -1.0980 h1         1 VRT       0.028200
     48 HO5          2.1500    -5.5000    -1.0610 ho         1 VRT       0.508000
     49 H6           1.2370     3.9110     1.1240 h5         1 VRT       0.046100
@<TRIPOS>BOND
     1     1     3 2   
     2     1    14 1   
     3     1    19 1   
     4     2    14 1   
     5     2    27 1   
     6     2    28 1   
     7     4     5 ar  
     8     4     9 ar  
     9     5     6 ar  
    10     5    49 1   
    11     6     7 ar  
    12     7     8 ar  
    13     7    13 1   
    14     8     9 ar  
    15     8    11 1   
    16     9    10 1   
    17    10    29 1   
    18    10    30 1   
    19    11    12 2   
    20    12    13 1   
    21    12    31 1   
    22    13    18 1   
    23    14    15 1   
    24    14    32 1   
    25    15    17 1   
    26    15    33 1   
    27    15    34 1   
    28    16    17 1   
    29    16    35 1   
    30    16    36 1   
    31    16    37 1   
    32    17    38 1   
    33    17    39 1   
    34    18    20 1   
    35    18    24 1   
    36    18    40 1   
    37    19    20 1   
    38    19    41 1   
    39    20    21 1   
    40    20    42 1   
    41    21    22 1   
    42    21    23 1   
    43    21    43 1   
    44    22    44 1   
    45    23    24 1   
    46    23    25 1   
    47    23    45 1   
    48    25    26 1   
    49    25    46 1   
    50    25    47 1   
    51    26    48 1   
@<TRIPOS>SUBSTRUCTURE
     1 VRT         1 TEMP              0 ****  ****    0 ROOT
