@<TRIPOS>MOLECULE
VRU
   57    60     1     0     0
SMALL
No Charge or Current Charge


@<TRIPOS>ATOM
      1 N          -62.8780     1.3960   -22.3390 ns         1 VRU      -0.498900
      2 C          -61.9480     2.3330   -20.2270 c3         1 VRU      -0.111100
      3 O          -61.2970    -0.2230   -22.3270 o          1 VRU      -0.590100
      4 C1         -62.0680     2.4660   -21.7550 c3         1 VRU       0.107000
      5 C10        -65.2660     1.4340   -25.5580 c3         1 VRU       0.146900
      6 C11        -66.4640    -3.7190   -26.1700 cc         1 VRU       0.430700
      7 C12        -67.9410    -4.8900   -25.0940 ca         1 VRU       0.071400
      8 C13        -69.0060    -5.7310   -24.7410 ca         1 VRU      -0.055000
      9 C14        -69.3090    -5.9200   -23.3660 ca         1 VRU       0.002000
     10 C15        -68.5240    -5.2510   -22.3870 ca         1 VRU      -0.090000
     11 C16        -67.4570    -4.4100   -22.7620 ca         1 VRU      -0.108000
     12 C17        -67.2010    -4.2660   -24.1300 ca         1 VRU      -0.075200
     13 C18        -70.4130    -6.7890   -22.9360 cc         1 VRU      -0.152000
     14 C19        -70.8700    -7.1050   -21.6450 cc         1 VRU       0.245900
     15 C2         -62.4520     0.1060   -22.5650 c          1 VRU       0.643700
     16 C21        -72.7800   -10.1990   -24.3410 c3         1 VRU       0.145600
     17 C22        -71.2210    -7.4640   -23.8060 cd         1 VRU      -0.164000
     18 C3         -63.4660    -0.8400   -23.1620 ca         1 VRU      -0.239600
     19 C4         -63.4810    -2.1940   -22.7560 ca         1 VRU       0.224100
     20 C6         -64.4180    -3.0880   -23.3120 ca         1 VRU      -0.258000
     21 C7         -65.3450    -2.6510   -24.2640 ca         1 VRU       0.104800
     22 C8         -65.3350    -1.3120   -24.6700 ca         1 VRU      -0.258000
     23 C9         -64.4040    -0.4020   -24.1280 ca         1 VRU       0.224100
     24 N1         -66.2660    -3.5450   -24.8030 na         1 VRU      -0.098400
     25 N2         -67.4980    -4.5670   -26.3820 nd         1 VRU      -0.570100
     26 N3         -71.9020    -7.9240   -21.6300 nd         1 VRU      -0.500800
     27 N4         -72.1180    -8.1590   -22.9840 na         1 VRU       0.136800
     28 O1         -62.5990    -2.6140   -21.7770 os         1 VRU      -0.328100
     29 O2         -64.3730     0.9120   -24.5570 os         1 VRU      -0.328100
     30 O3         -71.9570   -11.1280   -23.6190 oh         1 VRU      -0.640000
     31 H1         -63.8250     1.6060   -22.6310 hn         1 VRU       0.316500
     32 H2         -61.3520     3.1590   -19.8210 hc         1 VRU       0.040700
     33 H3         -62.9380     2.3600   -19.7580 hc         1 VRU       0.040700
     34 H4         -61.4590     1.3910   -19.9540 hc         1 VRU       0.040700
     35 H5         -61.0680     2.4500   -22.2080 h1         1 VRU       0.049700
     36 H6         -62.5340     3.4290   -22.0010 h1         1 VRU       0.049700
     37 H7         -65.0550     2.4950   -25.7380 h1         1 VRU       0.046867
     38 H8         -65.1440     0.8980   -26.5080 h1         1 VRU       0.046867
     39 H9         -66.3110     1.3470   -25.2330 h1         1 VRU       0.046867
     40 H10        -65.8570    -3.2290   -26.9210 h5         1 VRU       0.065800
     41 H11        -69.5790    -6.2160   -25.5240 ha         1 VRU       0.125000
     42 H12        -68.7400    -5.3790   -21.3300 ha         1 VRU       0.114000
     43 H13        -66.8590    -3.8940   -22.0140 ha         1 VRU       0.121000
     44 H14        -70.4770    -6.7530   -20.7010 h4         1 VRU       0.036100
     45 H15        -73.7470    -9.4250   -22.5590 h1         1 VRU       0.074200
     46 H16        -73.9330    -8.4020   -23.9900 h1         1 VRU       0.074200
     47 H17        -73.6780   -10.7080   -24.7140 h1         1 VRU       0.026200
     48 H18        -72.2400    -9.8030   -25.2110 h1         1 VRU       0.026200
     49 H19        -71.2480    -7.5190   -24.8870 h4         1 VRU       0.152000
     50 H20        -61.7790    -4.0680   -20.5210 h1         1 VRU       0.046867
     51 H21        -63.5160    -4.2510   -20.8410 h1         1 VRU       0.046867
     52 H22        -62.3220    -4.6670   -22.1020 h1         1 VRU       0.046867
     53 H23        -64.4440    -4.1310   -23.0120 ha         1 VRU       0.137000
     54 H24        -66.0640    -0.9920   -25.4080 ha         1 VRU       0.137000
     55 H25        -71.7130   -11.8460   -24.2460 ho         1 VRU       0.446000
     56 C20        -73.2230    -9.0260   -23.4360 c3         1 VRU       0.082600
     57 C5         -62.5560    -3.9670   -21.2900 c3         1 VRU       0.146900
@<TRIPOS>BOND
     1     1     4 1   
     2     1    15 1   
     3     1    31 1   
     4     2     4 1   
     5     2    32 1   
     6     2    33 1   
     7     2    34 1   
     8     3    15 2   
     9     4    35 1   
    10     4    36 1   
    11     5    29 1   
    12     5    37 1   
    13     5    38 1   
    14     5    39 1   
    15     6    24 1   
    16     6    25 2   
    17     6    40 1   
    18     7     8 ar  
    19     7    12 ar  
    20     7    25 1   
    21     8     9 ar  
    22     8    41 1   
    23     9    10 ar  
    24     9    13 1   
    25    10    11 ar  
    26    10    42 1   
    27    11    12 ar  
    28    11    43 1   
    29    12    24 1   
    30    13    14 1   
    31    13    17 2   
    32    14    26 2   
    33    14    44 1   
    34    15    18 1   
    35    16    30 1   
    36    16    47 1   
    37    16    48 1   
    38    16    56 1   
    39    17    27 1   
    40    17    49 1   
    41    18    19 ar  
    42    18    23 ar  
    43    19    20 ar  
    44    19    28 1   
    45    20    21 ar  
    46    20    53 1   
    47    21    22 ar  
    48    21    24 1   
    49    22    23 ar  
    50    22    54 1   
    51    23    29 1   
    52    26    27 1   
    53    27    56 1   
    54    28    57 1   
    55    30    55 1   
    56    45    56 1   
    57    46    56 1   
    58    50    57 1   
    59    51    57 1   
    60    52    57 1   
@<TRIPOS>SUBSTRUCTURE
     1 VRU         1 TEMP              0 ****  ****    0 ROOT
