@<TRIPOS>MOLECULE
VRU
   57    60     1     0     0
SMALL
abcg2


@<TRIPOS>ATOM
      1 N          -62.6130     0.8010   -21.8110 ns         1 VRU      -0.498900
      2 C          -62.3100     2.5510   -20.1400 c3         1 VRU      -0.111100
      3 O          -61.1960    -0.0770   -23.3290 o          1 VRU      -0.590100
      4 C1         -61.6470     1.6960   -21.2030 c3         1 VRU       0.107000
      5 C10        -64.9520     1.5850   -25.5910 c3         1 VRU       0.146900
      6 C11        -66.8900    -3.2330   -26.2370 cc         1 VRU       0.430700
      7 C12        -68.2220    -4.5500   -25.2410 ca         1 VRU       0.071400
      8 C13        -69.2390    -5.4380   -24.9070 ca         1 VRU      -0.055000
      9 C14        -69.3930    -5.8160   -23.5780 ca         1 VRU       0.002000
     10 C15        -68.5230    -5.2800   -22.6040 ca         1 VRU      -0.090000
     11 C16        -67.5150    -4.3890   -22.9140 ca         1 VRU      -0.108000
     12 C17        -67.3710    -4.0390   -24.2510 ca         1 VRU      -0.075200
     13 C18        -70.4430    -6.7540   -23.1800 cc         1 VRU      -0.152000
     14 C19        -70.9150    -7.0480   -21.8830 cc         1 VRU       0.245900
     15 C2         -62.3090    -0.0050   -22.8330 c          1 VRU       0.643700
     16 C21        -72.4240   -10.6130   -23.7550 c3         1 VRU       0.145600
     17 C22        -71.2250    -7.5550   -23.9910 cd         1 VRU      -0.164000
     18 C3         -63.4560    -0.8310   -23.3430 ca         1 VRU      -0.239600
     19 C4         -63.5920    -2.1590   -22.9430 ca         1 VRU       0.224100
     20 C6         -64.6040    -2.9580   -23.4710 ca         1 VRU      -0.258000
     21 C7         -65.4830    -2.3950   -24.3850 ca         1 VRU       0.104800
     22 C8         -65.3760    -1.0730   -24.7950 ca         1 VRU      -0.258000
     23 C9         -64.3390    -0.2990   -24.2790 ca         1 VRU       0.224100
     24 N1         -66.5180    -3.1860   -24.9220 na         1 VRU      -0.098400
     25 N2         -67.8890    -4.0250   -26.4700 nd         1 VRU      -0.570100
     26 N3         -71.8870    -7.9390   -21.9060 nd         1 VRU      -0.500800
     27 N4         -72.0650    -8.2320   -23.1900 na         1 VRU       0.136800
     28 O1         -62.6960    -2.5870   -22.0430 os         1 VRU      -0.328100
     29 O2         -64.1260     0.9820   -24.6120 os         1 VRU      -0.328100
     30 O3         -71.9390   -11.0510   -22.5110 oh         1 VRU      -0.640000
     31 H1         -63.5540     0.7930   -21.4520 hn         1 VRU       0.316500
     32 H2         -61.5780     3.2220   -19.6930 hc         1 VRU       0.040700
     33 H3         -63.1090     3.1600   -20.5630 hc         1 VRU       0.040700
     34 H4         -62.7320     1.9390   -19.3420 hc         1 VRU       0.040700
     35 H5         -60.8310     1.1170   -20.7640 h1         1 VRU       0.049700
     36 H6         -61.2040     2.3330   -21.9720 h1         1 VRU       0.049700
     37 H7         -64.5740     2.5950   -25.7290 h1         1 VRU       0.046867
     38 H8         -64.9020     1.0560   -26.5460 h1         1 VRU       0.046867
     39 H9         -65.9940     1.6400   -25.2670 h1         1 VRU       0.046867
     40 H10        -66.3590    -2.6590   -26.9840 h5         1 VRU       0.065800
     41 H11        -69.9000    -5.8110   -25.6800 ha         1 VRU       0.125000
     42 H12        -68.6380    -5.5770   -21.5690 ha         1 VRU       0.114000
     43 H13        -66.8730    -3.9950   -22.1380 ha         1 VRU       0.121000
     44 H14        -70.5920    -6.6300   -20.9410 h4         1 VRU       0.036100
     45 H15        -73.8280    -9.2410   -22.8570 h1         1 VRU       0.074200
     46 H16        -73.4620    -8.9270   -24.5490 h1         1 VRU       0.074200
     47 H17        -73.2100   -11.2690   -24.1500 h1         1 VRU       0.026200
     48 H18        -71.6320   -10.5710   -24.5130 h1         1 VRU       0.026200
     49 H19        -71.2410    -7.6890   -25.0610 h4         1 VRU       0.152000
     50 H20        -62.0130    -4.0140   -20.7990 h1         1 VRU       0.046867
     51 H21        -63.7640    -4.0870   -21.0660 h1         1 VRU       0.046867
     52 H22        -62.6430    -4.6520   -22.3280 h1         1 VRU       0.046867
     53 H23        -64.6960    -4.0020   -23.2090 ha         1 VRU       0.137000
     54 H24        -66.1020    -0.6630   -25.4830 ha         1 VRU       0.137000
     55 H25        -71.5000   -11.8960   -22.6390 ho         1 VRU       0.446000
     56 C20        -73.0280    -9.2330   -23.5960 c3         1 VRU       0.082600
     57 C5         -62.7980    -3.9080   -21.5430 c3         1 VRU       0.146900
@<TRIPOS>BOND
     1     1     4 1   
     2     1    15 1   
     3     1    31 1   
     4     2     4 1   
     5     2    32 1   
     6     2    33 1   
     7     2    34 1   
     8     3    15 2   
     9     4    35 1   
    10     4    36 1   
    11     5    29 1   
    12     5    37 1   
    13     5    38 1   
    14     5    39 1   
    15     6    24 1   
    16     6    25 2   
    17     6    40 1   
    18     7     8 ar  
    19     7    12 ar  
    20     7    25 1   
    21     8     9 ar  
    22     8    41 1   
    23     9    10 ar  
    24     9    13 1   
    25    10    11 ar  
    26    10    42 1   
    27    11    12 ar  
    28    11    43 1   
    29    12    24 1   
    30    13    14 1   
    31    13    17 2   
    32    14    26 2   
    33    14    44 1   
    34    15    18 1   
    35    16    30 1   
    36    16    47 1   
    37    16    48 1   
    38    16    56 1   
    39    17    27 1   
    40    17    49 1   
    41    18    19 ar  
    42    18    23 ar  
    43    19    20 ar  
    44    19    28 1   
    45    20    21 ar  
    46    20    53 1   
    47    21    22 ar  
    48    21    24 1   
    49    22    23 ar  
    50    22    54 1   
    51    23    29 1   
    52    26    27 1   
    53    27    56 1   
    54    28    57 1   
    55    30    55 1   
    56    45    56 1   
    57    46    56 1   
    58    50    57 1   
    59    51    57 1   
    60    52    57 1   
@<TRIPOS>SUBSTRUCTURE
     1 VRU         1 TEMP              0 ****  ****    0 ROOT
