@<TRIPOS>MOLECULE
VRV
   34    36     1     0     0
SMALL
No Charge or Current Charge


@<TRIPOS>ATOM
      1 C1           2.0030    -2.1680    -3.9150 ca         1 VRV      -0.026000
      2 C2           0.6290    -2.2000    -3.6200 ca         1 VRV      -0.151000
      3 C3           0.1900    -2.1800    -2.2880 ca         1 VRV       0.195100
      4 C4           1.1240    -2.1260    -1.2290 ca         1 VRV      -0.196800
      5 C5           2.5020    -2.1000    -1.5310 ca         1 VRV      -0.025000
      6 C6           2.9360    -2.1200    -2.8670 ca         1 VRV      -0.063900
      7 C7           0.7050    -2.0990     0.1660 cc         1 VRV       0.151400
      8 N8           1.0990    -3.0940     1.0110 ns         1 VRV      -0.358100
      9 C9           0.7930    -3.1480     2.3380 c          1 VRV       0.570200
     10 C10         -0.0220    -2.0080     2.8310 cc         1 VRV      -0.127900
     11 C11         -0.4530    -0.9680     1.9960 cd         1 VRV       0.132800
     12 C12         -0.0390    -1.0360     0.6090 cd         1 VRV      -0.319000
     13 C13         -1.1810     0.2470     2.4580 ca         1 VRV      -0.085800
     14 C14         -2.1110     0.8700     1.5920 ca         1 VRV      -0.080500
     15 C15         -2.8110     2.0240     1.9870 ca         1 VRV      -0.110000
     16 C16         -2.5840     2.5870     3.2500 ca         1 VRV      -0.091000
     17 C17         -1.6500     1.9980     4.1150 ca         1 VRV      -0.110000
     18 C18         -0.9520     0.8420     3.7230 ca         1 VRV      -0.080500
     19 C19         -0.4020    -2.1420     4.1950 cg         1 VRV       0.305700
     20 N20         -0.7410    -2.2520     5.3070 n1         1 VRV      -0.444000
     21 O21          1.1830    -4.0870     3.0190 o          1 VRV      -0.526000
     22 O22         -1.1490    -2.2370    -2.0360 oh         1 VRV      -0.525100
     23 Br23         4.8080    -2.0780    -3.2600 br         1 VRV      -0.076100
     24 H1           2.3400    -2.1830    -4.9490 ha         1 VRV       0.138000
     25 H2          -0.0970    -2.2440    -4.4280 ha         1 VRV       0.141000
     26 H5           3.2360    -2.0560    -0.7290 ha         1 VRV       0.136000
     27 HN8          1.6530    -3.8610     0.6550 hn         1 VRV       0.337500
     28 H12         -0.2740    -0.2280    -0.0770 ha         1 VRV       0.213000
     29 H14         -2.3250     0.4450     0.6140 ha         1 VRV       0.119000
     30 H15         -3.5320     2.4790     1.3110 ha         1 VRV       0.119500
     31 H16         -3.1230     3.4820     3.5550 ha         1 VRV       0.117000
     32 H17         -1.4570     2.4440     5.0880 ha         1 VRV       0.119500
     33 H18         -0.2000     0.4490     4.4000 ha         1 VRV       0.119000
     34 HO22        -1.2710    -2.2590    -1.0640 ho         1 VRV       0.483000
@<TRIPOS>BOND
     1     1     2 ar  
     2     1     6 ar  
     3     1    24 1   
     4     2     3 ar  
     5     2    25 1   
     6     3     4 ar  
     7     3    22 1   
     8     4     5 ar  
     9     4     7 1   
    10     5     6 ar  
    11     5    26 1   
    12     6    23 1   
    13     7     8 1   
    14     7    12 2   
    15     8     9 1   
    16     8    27 1   
    17     9    10 1   
    18     9    21 2   
    19    10    11 2   
    20    10    19 1   
    21    11    12 1   
    22    11    13 1   
    23    12    28 1   
    24    13    14 ar  
    25    13    18 ar  
    26    14    15 ar  
    27    14    29 1   
    28    15    16 ar  
    29    15    30 1   
    30    16    17 ar  
    31    16    31 1   
    32    17    18 ar  
    33    17    32 1   
    34    18    33 1   
    35    19    20 3   
    36    22    34 1   
@<TRIPOS>SUBSTRUCTURE
     1 VRV         1 TEMP              0 ****  ****    0 ROOT
