@<TRIPOS>MOLECULE
VRV
   34    36     1     0     0
SMALL
bcc


@<TRIPOS>ATOM
      1 C1           2.0850    -2.2520    -3.8840 ca         1 VRV      -0.044000
      2 C2           0.7470    -2.0270    -3.6320 ca         1 VRV      -0.169000
      3 C3           0.2670    -1.9430    -2.3260 ca         1 VRV       0.195100
      4 C4           1.1670    -2.0850    -1.2600 ca         1 VRV      -0.196800
      5 C5           2.5160    -2.3290    -1.5210 ca         1 VRV      -0.043000
      6 C6           2.9690    -2.4070    -2.8220 ca         1 VRV      -0.063900
      7 C7           0.7150    -1.9880     0.1360 cc         1 VRV       0.151400
      8 N8           1.0880    -2.9780     0.9750 ns         1 VRV      -0.425100
      9 C9           0.7880    -3.0420     2.3220 c          1 VRV       0.712700
     10 C10         -0.0040    -1.9290     2.7990 cc         1 VRV      -0.127900
     11 C11         -0.3960    -0.8970     1.9710 cd         1 VRV       0.132800
     12 C12         -0.0250    -0.9400     0.6100 cd         1 VRV      -0.269000
     13 C13         -1.1840     0.2480     2.4550 ca         1 VRV      -0.085800
     14 C14         -2.3060     0.6610     1.7370 ca         1 VRV      -0.098500
     15 C15         -3.0580     1.7400     2.1760 ca         1 VRV      -0.128000
     16 C16         -2.6840     2.4280     3.3230 ca         1 VRV      -0.109000
     17 C17         -1.5560     2.0340     4.0310 ca         1 VRV      -0.128000
     18 C18         -0.8100     0.9460     3.6030 ca         1 VRV      -0.098500
     19 C19         -0.4020    -2.0150     4.1590 cg         1 VRV       0.216500
     20 N20         -0.7230    -2.1190     5.2610 n1         1 VRV      -0.354800
     21 O21          1.1590    -3.9790     3.0070 o          1 VRV      -0.601500
     22 O22         -1.0500    -1.7460    -2.1760 oh         1 VRV      -0.486100
     23 BR23         4.7980    -2.7160    -3.1610 br         1 VRV      -0.076100
     24 H1           2.4280    -2.3110    -4.9080 ha         1 VRV       0.156000
     25 H2           0.0540    -1.9220    -4.4560 ha         1 VRV       0.159000
     26 H5           3.2050    -2.4270    -0.6920 ha         1 VRV       0.154000
     27 HN8          1.5970    -3.7690     0.5970 hn         1 VRV       0.337500
     28 H12         -0.2510    -0.1030    -0.0350 ha         1 VRV       0.163000
     29 H14         -2.6060     0.1250     0.8450 ha         1 VRV       0.137000
     30 H15         -3.9350     2.0450     1.6210 ha         1 VRV       0.137500
     31 H16         -3.2670     3.2740     3.6620 ha         1 VRV       0.135000
     32 H17         -1.2510     2.5760     4.9150 ha         1 VRV       0.137500
     33 H18          0.0800     0.6610     4.1480 ha         1 VRV       0.137000
     34 HO22        -1.3280    -1.8190    -1.2540 ho         1 VRV       0.444000
@<TRIPOS>BOND
     1     1     2 ar  
     2     1     6 ar  
     3     1    24 1   
     4     2     3 ar  
     5     2    25 1   
     6     3     4 ar  
     7     3    22 1   
     8     4     5 ar  
     9     4     7 1   
    10     5     6 ar  
    11     5    26 1   
    12     6    23 1   
    13     7     8 1   
    14     7    12 2   
    15     8     9 1   
    16     8    27 1   
    17     9    10 1   
    18     9    21 2   
    19    10    11 2   
    20    10    19 1   
    21    11    12 1   
    22    11    13 1   
    23    12    28 1   
    24    13    14 ar  
    25    13    18 ar  
    26    14    15 ar  
    27    14    29 1   
    28    15    16 ar  
    29    15    30 1   
    30    16    17 ar  
    31    16    31 1   
    32    17    18 ar  
    33    17    32 1   
    34    18    33 1   
    35    19    20 3   
    36    22    34 1   
@<TRIPOS>SUBSTRUCTURE
     1 VRV         1 TEMP              0 ****  ****    0 ROOT
