@<TRIPOS>MOLECULE
VRX
   40    42     1     0     0
SMALL
No Charge or Current Charge


@<TRIPOS>ATOM
      1 C1           3.9760    -2.1150    -4.1330 ca         1 VRX      -0.066500
      2 C2           5.0220    -2.3360    -5.0470 ca         1 VRX      -0.158000
      3 C3           6.3080    -1.8490    -4.7680 ca         1 VRX       0.141000
      4 C4           6.5560    -1.1410    -3.5820 ca         1 VRX      -0.158000
      5 C5           5.5110    -0.9200    -2.6670 ca         1 VRX      -0.066500
      6 C6           4.2140    -1.4090    -2.9350 ca         1 VRX      -0.036300
      7 F            7.3120    -2.0610    -5.6460 f          1 VRX      -0.204000
      8 C8           3.0720    -1.1690    -1.9470 c3         1 VRX       0.092800
      9 C9           3.3980    -1.7970    -0.5400 c          1 VRX       0.727000
     10 O10          3.2310    -3.0000    -0.3880 o          1 VRX      -0.698500
     11 O11          3.7870    -1.0540     0.3560 o          1 VRX      -0.698500
     12 N12          2.7470     0.2910    -1.8870 nu         1 VRX      -0.801400
     13 C13          1.9490     0.9950    -2.7290 cc         1 VRX       0.728100
     14 S14          1.5730     2.7020    -2.4990 ss         1 VRX      -0.248800
     15 C15          0.5970     2.6320    -3.9570 cc         1 VRX      -0.092600
     16 C16          0.6200     1.2770    -4.5350 c          1 VRX       0.714700
     17 N17          1.4040     0.4280    -3.7740 nd         1 VRX      -0.750100
     18 O18          0.0450     0.8970    -5.5430 o          1 VRX      -0.554100
     19 C19         -0.0990     3.6870    -4.4950 cf         1 VRX      -0.207800
     20 C20         -0.2310     5.0770    -4.0580 cd         1 VRX       0.175800
     21 C21         -0.9590     6.0740    -4.6480 cc         1 VRX      -0.165000
     22 C22         -0.7740     7.2260    -3.8620 cc         1 VRX      -0.197000
     23 C23          0.0560     6.8600    -2.8400 cd         1 VRX       0.143300
     24 O24          0.4160     5.5350    -2.9320 os         1 VRX      -0.222000
     25 C25          0.5980     7.6790    -1.7000 c3         1 VRX      -0.104700
     26 C26         -0.0400     7.3070    -0.3470 c3         1 VRX      -0.088100
     27 H261        -1.1250     7.4600    -0.3760 hc         1 VRX       0.041033
     28 H262         0.3740     7.9290     0.4560 hc         1 VRX       0.041033
     29 H263         0.1550     6.2560    -0.1020 hc         1 VRX       0.041033
     30 H251         1.6840     7.5450    -1.6320 hc         1 VRX       0.053700
     31 H252         0.4270     8.7440    -1.8940 hc         1 VRX       0.053700
     32 H22         -1.2090     8.2040    -4.0410 ha         1 VRX       0.133000
     33 H21         -1.5660     6.0020    -5.5460 ha         1 VRX       0.138000
     34 H19         -0.6520     3.4490    -5.4060 ha         1 VRX       0.211000
     35 H12          3.0190     0.8020    -1.0480 hn         1 VRX       0.546000
     36 H8           2.1870    -1.7130    -2.3030 h1         1 VRX       0.076700
     37 H5           5.7070    -0.3670    -1.7520 ha         1 VRX       0.117500
     38 H4           7.5530    -0.7640    -3.3730 ha         1 VRX       0.113000
     39 H2           4.8360    -2.8810    -5.9690 ha         1 VRX       0.113000
     40 H1           2.9800    -2.4900    -4.3570 ha         1 VRX       0.117500
@<TRIPOS>BOND
     1     1     2 ar  
     2     1     6 ar  
     3     1    40 1   
     4     2     3 ar  
     5     2    39 1   
     6     3     4 ar  
     7     3     7 1   
     8     4     5 ar  
     9     4    38 1   
    10     5     6 ar  
    11     5    37 1   
    12     6     8 1   
    13     8     9 1   
    14     8    12 1   
    15     8    36 1   
    16     9    10 1   
    17     9    11 1   
    18    12    13 1   
    19    12    35 1   
    20    13    14 1   
    21    13    17 2   
    22    14    15 1   
    23    15    16 1   
    24    15    19 2   
    25    16    17 1   
    26    16    18 2   
    27    19    20 1   
    28    19    34 1   
    29    20    21 2   
    30    20    24 1   
    31    21    22 1   
    32    21    33 1   
    33    22    23 2   
    34    22    32 1   
    35    23    24 1   
    36    23    25 1   
    37    25    26 1   
    38    25    30 1   
    39    25    31 1   
    40    26    27 1   
    41    26    28 1   
    42    26    29 1   
@<TRIPOS>SUBSTRUCTURE
     1 VRX         1 TEMP              0 ****  ****    0 ROOT
