@<TRIPOS>MOLECULE
VRX
   40    42     1     0     0
SMALL
abcg2


@<TRIPOS>ATOM
      1 C1           4.0430    -2.4670    -3.5570 ca         1 VRX      -0.066500
      2 C2           5.0550    -2.7740    -4.4560 ca         1 VRX      -0.158000
      3 C3           6.0260    -1.8250    -4.7070 ca         1 VRX       0.141000
      4 C4           6.0130    -0.5880    -4.0930 ca         1 VRX      -0.158000
      5 C5           4.9930    -0.3010    -3.1960 ca         1 VRX      -0.066500
      6 C6           3.9970    -1.2310    -2.9200 ca         1 VRX      -0.036300
      7 F            7.0070    -2.1110    -5.5810 f          1 VRX      -0.204000
      8 C8           2.9110    -0.9500    -1.9120 c3         1 VRX       0.092800
      9 C9           3.3830    -1.3890    -0.4900 c          1 VRX       0.727000
     10 O10          3.6440    -2.5920    -0.3740 o          1 VRX      -0.698500
     11 O11          3.4530    -0.4910     0.3680 o          1 VRX      -0.698500
     12 N12          2.5470     0.4460    -1.8570 nu         1 VRX      -0.801400
     13 C13          1.8930     1.0760    -2.8060 cc         1 VRX       0.728100
     14 S14          1.5010     2.7860    -2.5590 ss         1 VRX      -0.248800
     15 C15          0.7290     2.7700    -4.1270 cc         1 VRX      -0.092600
     16 C16          0.8490     1.4070    -4.7300 c          1 VRX       0.714700
     17 N17          1.5120     0.5270    -3.9240 nd         1 VRX      -0.750100
     18 O18          0.3960     1.1290    -5.8250 o          1 VRX      -0.554100
     19 C19          0.1060     3.7900    -4.7390 cf         1 VRX      -0.207800
     20 C20         -0.0590     5.1140    -4.2440 cd         1 VRX       0.175800
     21 C21         -0.6850     6.2120    -4.7610 cc         1 VRX      -0.165000
     22 C22         -0.5200     7.2500    -3.8100 cc         1 VRX      -0.197000
     23 C23          0.1950     6.7230    -2.7770 cd         1 VRX       0.143300
     24 O24          0.4740     5.4310    -3.0380 os         1 VRX      -0.222000
     25 C25          0.6760     7.2810    -1.4910 c3         1 VRX      -0.104700
     26 C26          0.0660     6.5950    -0.2680 c3         1 VRX      -0.088100
     27 H261        -1.0190     6.6990    -0.2590 hc         1 VRX       0.041033
     28 H262         0.4550     7.0440     0.6450 hc         1 VRX       0.041033
     29 H263         0.3030     5.5320    -0.2430 hc         1 VRX       0.041033
     30 H251         1.7660     7.2060    -1.4460 hc         1 VRX       0.053700
     31 H252         0.4370     8.3450    -1.4800 hc         1 VRX       0.053700
     32 H22         -0.8840     8.2630    -3.8750 ha         1 VRX       0.133000
     33 H21         -1.2010     6.2610    -5.7070 ha         1 VRX       0.138000
     34 H19         -0.3240     3.5930    -5.7140 ha         1 VRX       0.211000
     35 H12          2.7760     0.8950    -0.9760 hn         1 VRX       0.546000
     36 H8           2.0280    -1.5400    -2.1730 h1         1 VRX       0.076700
     37 H5           4.9810     0.6700    -2.7180 ha         1 VRX       0.117500
     38 H4           6.7820     0.1420    -4.3080 ha         1 VRX       0.113000
     39 H2           5.0810    -3.7340    -4.9560 ha         1 VRX       0.113000
     40 H1           3.2730    -3.2010    -3.3620 ha         1 VRX       0.117500
@<TRIPOS>BOND
     1     1     2 ar  
     2     1     6 ar  
     3     1    40 1   
     4     2     3 ar  
     5     2    39 1   
     6     3     4 ar  
     7     3     7 1   
     8     4     5 ar  
     9     4    38 1   
    10     5     6 ar  
    11     5    37 1   
    12     6     8 1   
    13     8     9 1   
    14     8    12 1   
    15     8    36 1   
    16     9    10 1   
    17     9    11 1   
    18    12    13 1   
    19    12    35 1   
    20    13    14 1   
    21    13    17 2   
    22    14    15 1   
    23    15    16 1   
    24    15    19 2   
    25    16    17 1   
    26    16    18 2   
    27    19    20 1   
    28    19    34 1   
    29    20    21 2   
    30    20    24 1   
    31    21    22 1   
    32    21    33 1   
    33    22    23 2   
    34    22    32 1   
    35    23    24 1   
    36    23    25 1   
    37    25    26 1   
    38    25    30 1   
    39    25    31 1   
    40    26    27 1   
    41    26    28 1   
    42    26    29 1   
@<TRIPOS>SUBSTRUCTURE
     1 VRX         1 TEMP              0 ****  ****    0 ROOT
