@<TRIPOS>MOLECULE
VRY
   25    26     1     0     0
SMALL
No Charge or Current Charge


@<TRIPOS>ATOM
      1 N1          -5.9490    14.0610   -37.1450 nc         1 VRY      -0.707000
      2 C7          -4.0580    14.1440   -34.0450 c3         1 VRY       0.149900
      3 C8          -4.7960    14.1420   -36.5040 cd         1 VRY       0.421400
      4 N2          -6.3900    13.9660   -34.9010 nd         1 VRY      -0.543800
      5 C9          -6.8620    13.9570   -36.1360 cc         1 VRY       0.520900
      6 C1          -0.1120    12.6820   -35.1670 ca         1 VRY       0.165100
      7 C5          -2.4290    12.2340   -34.5680 ca         1 VRY       0.177000
      8 C6          -1.1540    11.7760   -34.9320 ca         1 VRY      -0.143000
      9 C4          -2.6770    13.6170   -34.4330 ca         1 VRY      -0.163300
     10 C3          -1.6280    14.5280   -34.6680 ca         1 VRY      -0.046000
     11 C2          -0.3520    14.0660   -35.0330 ca         1 VRY      -0.201000
     12 O            1.1200    12.1720   -35.5230 os         1 VRY      -0.341100
     13 C            2.2550    13.0170   -35.7850 c3         1 VRY       0.146900
     14 N           -5.0450    14.0840   -35.1390 na         1 VRY      -0.070700
     15 H1          -3.9770    15.1880   -33.7170 h1         1 VRY       0.078200
     16 H2          -4.4410    13.5700   -33.1910 h1         1 VRY       0.078200
     17 H3          -3.8020    14.2400   -36.9260 h5         1 VRY       0.065100
     18 H4          -7.9150    13.8740   -36.3820 h5         1 VRY       0.063100
     19 H5          -0.9730    10.7100   -35.0340 ha         1 VRY       0.149000
     20 H6          -1.8000    15.5990   -34.5700 ha         1 VRY       0.120000
     21 H7           0.4340    14.7950   -35.2080 ha         1 VRY       0.127000
     22 H8           3.1290    12.4090   -36.0500 h1         1 VRY       0.047367
     23 H9           2.0490    13.6980   -36.6210 h1         1 VRY       0.047367
     24 H10          2.5110    13.6120   -34.8990 h1         1 VRY       0.047367
     25 Cl          -3.7030    11.0470   -34.2880 cl         1 VRY      -0.187000
@<TRIPOS>BOND
     1     1     3 2   
     2     1     5 1   
     3     2     9 1   
     4     2    14 1   
     5     2    15 1   
     6     2    16 1   
     7     3    14 1   
     8     3    17 1   
     9     4     5 2   
    10     4    14 1   
    11     5    18 1   
    12     6     8 ar  
    13     6    11 ar  
    14     6    12 1   
    15     7     8 ar  
    16     7     9 ar  
    17     7    25 1   
    18     8    19 1   
    19     9    10 ar  
    20    10    11 ar  
    21    10    20 1   
    22    11    21 1   
    23    12    13 1   
    24    13    22 1   
    25    13    23 1   
    26    13    24 1   
@<TRIPOS>SUBSTRUCTURE
     1 VRY         1 TEMP              0 ****  ****    0 ROOT
