@<TRIPOS>MOLECULE
VRY
   25    26     1     0     0
SMALL
abcg2


@<TRIPOS>ATOM
      1 N1          -5.9490    13.9920   -37.1220 nc         1 VRY      -0.707000
      2 C7          -4.0190    14.1520   -34.0650 c3         1 VRY       0.149900
      3 C8          -4.7860    14.0410   -36.4840 cd         1 VRY       0.421400
      4 N2          -6.3180    14.0190   -34.9010 nd         1 VRY      -0.543800
      5 C9          -6.8540    13.9820   -36.1090 cc         1 VRY       0.520900
      6 C1          -0.1080    12.7090   -35.1860 ca         1 VRY       0.165100
      7 C5          -2.4000    12.2710   -34.6230 ca         1 VRY       0.177000
      8 C6          -1.1520    11.8010   -34.9800 ca         1 VRY      -0.143000
      9 C4          -2.6670    13.6340   -34.4560 ca         1 VRY      -0.163300
     10 C3          -1.6090    14.5120   -34.6700 ca         1 VRY      -0.046000
     11 C2          -0.3390    14.0760   -35.0300 ca         1 VRY      -0.201000
     12 O            1.0830    12.1660   -35.5300 os         1 VRY      -0.341100
     13 C            2.1930    13.0420   -35.7430 c3         1 VRY       0.146900
     14 N           -4.9890    14.0550   -35.1590 na         1 VRY      -0.070700
     15 H1          -3.9420    15.1970   -33.7640 h1         1 VRY       0.078200
     16 H2          -4.4400    13.5860   -33.2350 h1         1 VRY       0.078200
     17 H3          -3.8070    14.0610   -36.9330 h5         1 VRY       0.065100
     18 H4          -7.9210    13.9410   -36.2600 h5         1 VRY       0.063100
     19 H5          -0.9700    10.7430   -35.1010 ha         1 VRY       0.149000
     20 H6          -1.7850    15.5740   -34.5530 ha         1 VRY       0.120000
     21 H7           0.4490    14.7970   -35.1820 ha         1 VRY       0.127000
     22 H8           3.0310    12.4000   -35.9960 h1         1 VRY       0.047367
     23 H9           1.9930    13.7300   -36.5670 h1         1 VRY       0.047367
     24 H10          2.4210    13.6080   -34.8370 h1         1 VRY       0.047367
     25 CL          -3.6790    11.0990   -34.3770 cl         1 VRY      -0.187000
@<TRIPOS>BOND
     1     1     3 2   
     2     1     5 1   
     3     2     9 1   
     4     2    14 1   
     5     2    15 1   
     6     2    16 1   
     7     3    14 1   
     8     3    17 1   
     9     4     5 2   
    10     4    14 1   
    11     5    18 1   
    12     6     8 ar  
    13     6    11 ar  
    14     6    12 1   
    15     7     8 ar  
    16     7     9 ar  
    17     7    25 1   
    18     8    19 1   
    19     9    10 ar  
    20    10    11 ar  
    21    10    20 1   
    22    11    21 1   
    23    12    13 1   
    24    13    22 1   
    25    13    23 1   
    26    13    24 1   
@<TRIPOS>SUBSTRUCTURE
     1 VRY         1 TEMP              0 ****  ****    0 ROOT
