@<TRIPOS>MOLECULE
VRZ
   58    62     1     0     0
SMALL
abcg2


@<TRIPOS>ATOM
      1 CAP         -5.7440    -2.4740     0.9970 c5         1 VRZ      -0.092900
      2 CAN         -5.9820    -3.9140     0.5000 c5         1 VRZ      -0.080900
      3 CAO         -6.2830    -3.7820    -0.9970 c5         1 VRZ      -0.080900
      4 CAQ         -5.4340    -2.5920    -1.4240 c5         1 VRZ      -0.092900
      5 CBE         -5.6520    -1.6040    -0.2760 c5         1 VRZ       0.076300
      6 NBF         -4.6540    -0.5540    -0.2020 na         1 VRZ      -0.170400
      7 CAM         -3.3100    -0.7370     0.0060 cc         1 VRZ      -0.161100
      8 C4          -4.8850     0.7740    -0.3500 ca         1 VRZ       0.149500
      9 N3          -6.0760     1.3360    -0.5680 nb         1 VRZ      -0.233000
     10 C2          -6.0160     2.6480    -0.6460 ca         1 VRZ       0.176900
     11 N1          -4.9470     3.4290    -0.5030 nb         1 VRZ      -0.303000
     12 C6          -3.7620     2.8600    -0.2700 ca         1 VRZ       0.424900
     13 NAA         -2.7070     3.6770    -0.1020 nv         1 VRZ      -1.065900
     14 C5          -3.6660     1.4540    -0.2250 ca         1 VRZ      -0.241800
     15 CBB         -2.6520     0.4630    -0.0030 cd         1 VRZ      -0.056400
     16 CAZ         -1.2060     0.6310     0.1670 ca         1 VRZ      -0.041800
     17 CAK         -0.4560     1.4400    -0.6890 ca         1 VRZ      -0.085500
     18 CAI          0.9130     1.5690    -0.5350 ca         1 VRZ      -0.144000
     19 CAJ         -0.5220    -0.0410     1.1800 ca         1 VRZ      -0.085500
     20 CAH          0.8480     0.0800     1.3450 ca         1 VRZ      -0.144000
     21 CAY          1.5870     0.8910     0.4820 ca         1 VRZ      -0.011000
     22 NAV          2.9590     1.1070     0.6130 ns         1 VRZ      -0.168000
     23 CAW          3.8850     0.2040     1.0800 c          1 VRZ       0.661100
     24 OAB          3.5870    -0.9120     1.4780 o          1 VRZ      -0.621100
     25 NAU          5.1540     0.6770     1.0630 ns         1 VRZ      -0.524900
     26 CAR          6.2920    -0.1000     1.4830 c3         1 VRZ       0.158300
     27 CAX          7.1740    -0.5560     0.3450 ca         1 VRZ      -0.115300
     28 CAF          6.6310    -1.0760    -0.8270 ca         1 VRZ      -0.099000
     29 CAD          7.4560    -1.5220    -1.8500 ca         1 VRZ      -0.110500
     30 CAC          8.8380    -1.4540    -1.7160 ca         1 VRZ      -0.106000
     31 CAE          9.3880    -0.9350    -0.5520 ca         1 VRZ      -0.110500
     32 CAG          8.5580    -0.4870     0.4690 ca         1 VRZ      -0.099000
     33 H1          -6.5540    -2.1220     1.6370 hc         1 VRZ       0.054450
     34 H2          -4.8310    -2.4060     1.5900 hc         1 VRZ       0.054450
     35 H3          -5.0790    -4.5120     0.6390 hc         1 VRZ       0.047200
     36 H4          -6.7820    -4.4150     1.0440 hc         1 VRZ       0.047200
     37 H5          -6.0540    -4.6900    -1.5570 hc         1 VRZ       0.047200
     38 H6          -7.3410    -3.5590    -1.1560 hc         1 VRZ       0.047200
     39 H7          -4.3810    -2.8840    -1.4780 hc         1 VRZ       0.054450
     40 H8          -5.7120    -2.1720    -2.3910 hc         1 VRZ       0.054450
     41 H9          -6.6030    -1.0950    -0.4320 h1         1 VRZ       0.094700
     42 H10         -2.8970    -1.7270     0.1260 h4         1 VRZ       0.221000
     43 H11         -6.9510     3.1650    -0.8390 h5         1 VRZ       0.043100
     44 H12         -2.8870     4.6610     0.0110 hn         1 VRZ       0.491500
     45 H13         -1.8560     3.3300     0.3040 hn         1 VRZ       0.491500
     46 H14         -0.9400     1.9540    -1.5110 ha         1 VRZ       0.120000
     47 H15          1.4690     2.1950    -1.2230 ha         1 VRZ       0.125500
     48 H16         -1.0770    -0.6570     1.8760 ha         1 VRZ       0.120000
     49 H17          1.3260    -0.4380     2.1610 ha         1 VRZ       0.125500
     50 H18          3.3080     1.9300     0.1470 hn         1 VRZ       0.144000
     51 H19          6.8840     0.4850     2.1890 h1         1 VRZ       0.067200
     52 H20          5.5560    -1.1370    -0.9490 ha         1 VRZ       0.114500
     53 H21          7.0190    -1.9240    -2.7550 ha         1 VRZ       0.113500
     54 H22          9.4800    -1.7990    -2.5160 ha         1 VRZ       0.113000
     55 H23         10.4620    -0.8720    -0.4390 ha         1 VRZ       0.113500
     56 H24          8.9940    -0.0740     1.3710 ha         1 VRZ       0.114500
     57 H25          5.3410     1.6010     0.7090 hn         1 VRZ       0.310500
     58 H26          5.9250    -0.9670     2.0340 h1         1 VRZ       0.067200
@<TRIPOS>BOND
     1     1     2 1   
     2     1     5 1   
     3     1    33 1   
     4     1    34 1   
     5     2     3 1   
     6     2    35 1   
     7     2    36 1   
     8     3     4 1   
     9     3    37 1   
    10     3    38 1   
    11     4     5 1   
    12     4    39 1   
    13     4    40 1   
    14     5     6 1   
    15     5    41 1   
    16     6     7 1   
    17     6     8 1   
    18     7    15 2   
    19     7    42 1   
    20     8     9 ar  
    21     8    14 ar  
    22     9    10 ar  
    23    10    11 ar  
    24    10    43 1   
    25    11    12 ar  
    26    12    13 1   
    27    12    14 ar  
    28    13    44 1   
    29    13    45 1   
    30    14    15 1   
    31    15    16 1   
    32    16    17 ar  
    33    16    19 ar  
    34    17    18 ar  
    35    17    46 1   
    36    18    21 ar  
    37    18    47 1   
    38    19    20 ar  
    39    19    48 1   
    40    20    21 ar  
    41    20    49 1   
    42    21    22 1   
    43    22    23 1   
    44    22    50 1   
    45    23    24 2   
    46    23    25 1   
    47    25    26 1   
    48    25    57 1   
    49    26    27 1   
    50    26    51 1   
    51    26    58 1   
    52    27    28 ar  
    53    27    32 ar  
    54    28    29 ar  
    55    28    52 1   
    56    29    30 ar  
    57    29    53 1   
    58    30    31 ar  
    59    30    54 1   
    60    31    32 ar  
    61    31    55 1   
    62    32    56 1   
@<TRIPOS>SUBSTRUCTURE
     1 VRZ         1 TEMP              0 ****  ****    0 ROOT
