@<TRIPOS>MOLECULE
VRZ
   58    62     1     0     0
SMALL
No Charge or Current Charge


@<TRIPOS>ATOM
      1 CAP         -6.2370    -2.0750     1.3040 c5         1 VRZ      -0.092900
      2 CAN         -7.4340    -3.0280     1.0200 c5         1 VRZ      -0.080900
      3 CAO         -7.3420    -3.3410    -0.5090 c5         1 VRZ      -0.080900
      4 CAQ         -6.0790    -2.5730    -0.9930 c5         1 VRZ      -0.092900
      5 CBE         -6.0730    -1.3430    -0.0520 c5         1 VRZ       0.076300
      6 NBF         -4.8850    -0.4830    -0.1550 na         1 VRZ      -0.170400
      7 CAM         -3.5600    -0.9320     0.0120 cc         1 VRZ      -0.161100
      8 C4          -4.9040     0.8870    -0.3990 ca         1 VRZ       0.149500
      9 N3          -5.9480     1.7290    -0.5450 nb         1 VRZ      -0.233000
     10 C2          -5.6410     3.0380    -0.6830 ca         1 VRZ       0.176900
     11 N1          -4.4050     3.5850    -0.6500 nb         1 VRZ      -0.303000
     12 C6          -3.3800     2.7320    -0.5060 ca         1 VRZ       0.424900
     13 NAA         -2.1770     3.3300    -0.3440 nv         1 VRZ      -1.065900
     14 C5          -3.6040     1.3450    -0.4160 ca         1 VRZ      -0.241800
     15 CBB         -2.7580     0.1720    -0.2260 cd         1 VRZ      -0.056400
     16 CAZ         -1.2810     0.1340    -0.1630 ca         1 VRZ      -0.041800
     17 CAK         -0.4830     0.9390    -1.0000 ca         1 VRZ      -0.085500
     18 CAI          0.9200     0.8640    -0.9460 ca         1 VRZ      -0.144000
     19 CAJ         -0.6380    -0.7940     0.6820 ca         1 VRZ      -0.085500
     20 CAH          0.7650    -0.8680     0.7400 ca         1 VRZ      -0.144000
     21 CAY          1.5600    -0.0300    -0.0690 ca         1 VRZ      -0.011000
     22 NAV          2.9820    -0.0510    -0.0690 ns         1 VRZ      -0.168000
     23 CAW          3.9030    -0.7580     0.6860 c          1 VRZ       0.661100
     24 OAB          3.6350    -1.5530     1.5750 o          1 VRZ      -0.621100
     25 NAU          5.1980    -0.4700     0.3340 ns         1 VRZ      -0.524900
     26 CAR          6.3720    -1.0680     0.9650 c3         1 VRZ       0.158300
     27 CAX          7.6540    -0.5380     0.3430 ca         1 VRZ      -0.115300
     28 CAF          8.2280    -1.1910    -0.7660 ca         1 VRZ      -0.099000
     29 CAD          9.4110    -0.6980    -1.3440 ca         1 VRZ      -0.110500
     30 CAC         10.0260     0.4510    -0.8180 ca         1 VRZ      -0.106000
     31 CAE          9.4560     1.1070     0.2860 ca         1 VRZ      -0.110500
     32 CAG          8.2730     0.6150     0.8650 ca         1 VRZ      -0.099000
     33 H1          -6.4430    -1.3840     2.1280 hc         1 VRZ       0.054450
     34 H2          -5.3360    -2.6400     1.5740 hc         1 VRZ       0.054450
     35 H3          -7.3810    -3.9360     1.6320 hc         1 VRZ       0.047200
     36 H4          -8.3880    -2.5420     1.2570 hc         1 VRZ       0.047200
     37 H5          -7.2620    -4.4170    -0.7070 hc         1 VRZ       0.047200
     38 H6          -8.2400    -2.9890    -1.0300 hc         1 VRZ       0.047200
     39 H7          -5.1750    -3.1830    -0.8790 hc         1 VRZ       0.054450
     40 H8          -6.1470    -2.2890    -2.0490 hc         1 VRZ       0.054450
     41 H9          -6.9660    -0.7320    -0.2460 h1         1 VRZ       0.094700
     42 H10         -3.3050    -1.9630     0.2280 h4         1 VRZ       0.221000
     43 H11         -6.4770     3.7250    -0.8040 h5         1 VRZ       0.043100
     44 H12         -2.1660     4.3250    -0.1400 hn         1 VRZ       0.491500
     45 H13         -1.4250     2.7730     0.0510 hn         1 VRZ       0.491500
     46 H14         -0.9450     1.5880    -1.7380 ha         1 VRZ       0.120000
     47 H15          1.5110     1.4970    -1.6040 ha         1 VRZ       0.125500
     48 H16         -1.2250    -1.4480     1.3210 ha         1 VRZ       0.120000
     49 H17          1.2120    -1.5880     1.4180 ha         1 VRZ       0.125500
     50 H18          3.3950     0.5690    -0.7530 hn         1 VRZ       0.144000
     51 H19          6.3570    -0.8410     2.0400 h1         1 VRZ       0.067200
     52 H20          7.7570    -2.0800    -1.1810 ha         1 VRZ       0.114500
     53 H21          9.8500    -1.2060    -2.2000 ha         1 VRZ       0.113500
     54 H22         10.9410     0.8320    -1.2650 ha         1 VRZ       0.113000
     55 H23          9.9310     1.9970     0.6940 ha         1 VRZ       0.113500
     56 H24          7.8370     1.1300     1.7180 ha         1 VRZ       0.114500
     57 H25          5.3440     0.1990    -0.4110 hn         1 VRZ       0.310500
     58 H26          6.3240    -2.1600     0.8500 h1         1 VRZ       0.067200
@<TRIPOS>BOND
     1     1     2 1   
     2     1     5 1   
     3     1    33 1   
     4     1    34 1   
     5     2     3 1   
     6     2    35 1   
     7     2    36 1   
     8     3     4 1   
     9     3    37 1   
    10     3    38 1   
    11     4     5 1   
    12     4    39 1   
    13     4    40 1   
    14     5     6 1   
    15     5    41 1   
    16     6     7 1   
    17     6     8 1   
    18     7    15 2   
    19     7    42 1   
    20     8     9 ar  
    21     8    14 ar  
    22     9    10 ar  
    23    10    11 ar  
    24    10    43 1   
    25    11    12 ar  
    26    12    13 1   
    27    12    14 ar  
    28    13    44 1   
    29    13    45 1   
    30    14    15 1   
    31    15    16 1   
    32    16    17 ar  
    33    16    19 ar  
    34    17    18 ar  
    35    17    46 1   
    36    18    21 ar  
    37    18    47 1   
    38    19    20 ar  
    39    19    48 1   
    40    20    21 ar  
    41    20    49 1   
    42    21    22 1   
    43    22    23 1   
    44    22    50 1   
    45    23    24 2   
    46    23    25 1   
    47    25    26 1   
    48    25    57 1   
    49    26    27 1   
    50    26    51 1   
    51    26    58 1   
    52    27    28 ar  
    53    27    32 ar  
    54    28    29 ar  
    55    28    52 1   
    56    29    30 ar  
    57    29    53 1   
    58    30    31 ar  
    59    30    54 1   
    60    31    32 ar  
    61    31    55 1   
    62    32    56 1   
@<TRIPOS>SUBSTRUCTURE
     1 VRZ         1 TEMP              0 ****  ****    0 ROOT
