@<TRIPOS>MOLECULE
VS0
   53    57     1     0     0
SMALL
abcg2


@<TRIPOS>ATOM
      1 O30         -4.3180    -1.7850    -0.7400 o          1 VS0      -0.577100
      2 C19         -4.6430    -0.7030    -0.2830 c          1 VS0       0.619700
      3 C15         -6.0800    -0.3380    -0.0990 ca         1 VS0      -0.156600
      4 C6          -6.5350     0.9780    -0.1550 ca         1 VS0      -0.071000
      5 C2          -7.8850     1.2590    -0.0050 ca         1 VS0      -0.119000
      6 C1          -8.7910     0.2290     0.2070 ca         1 VS0      -0.086000
      7 C3          -8.3440    -1.0860     0.2570 ca         1 VS0      -0.119000
      8 C7          -6.9980    -1.3700     0.0940 ca         1 VS0      -0.071000
      9 N29         -3.7560     0.2470     0.1080 ns         1 VS0      -0.145000
     10 C16         -2.3590     0.1980     0.0490 ca         1 VS0      -0.025000
     11 C8          -1.6430    -0.6130    -0.8320 ca         1 VS0      -0.145000
     12 C4          -0.2580    -0.5640    -0.8430 ca         1 VS0      -0.086000
     13 C13          0.4600     0.2720     0.0130 ca         1 VS0      -0.039800
     14 C5          -0.2700     1.0750     0.8910 ca         1 VS0      -0.086000
     15 C9          -1.6530     1.0420     0.9070 ca         1 VS0      -0.145000
     16 C14          1.9250     0.2650     0.0090 cc         1 VS0      -0.058400
     17 C12          2.8490     1.3620     0.0250 ca         1 VS0      -0.242800
     18 C18          2.8040     2.7700    -0.0470 ca         1 VS0       0.426900
     19 N28          1.6590     3.4680    -0.1340 nv         1 VS0      -1.067900
     20 N26          3.9450     3.4650    -0.0110 nb         1 VS0      -0.303000
     21 C11          5.0970     2.8020     0.0540 ca         1 VS0       0.177900
     22 N25          5.2820     1.4990     0.0720 nb         1 VS0      -0.234000
     23 C17          4.1380     0.8110     0.0490 ca         1 VS0       0.148500
     24 N27          4.0300    -0.5400     0.0330 na         1 VS0      -0.172400
     25 C10          2.6980    -0.8640     0.0100 cd         1 VS0      -0.161100
     26 C24          5.1320    -1.4860     0.0900 c5         1 VS0       0.079300
     27 C23          5.1010    -2.3800     1.3550 c5         1 VS0      -0.094400
     28 C21          4.8180    -3.7950     0.8500 c5         1 VS0      -0.081900
     29 C20          5.5050    -3.8180    -0.5120 c5         1 VS0      -0.081900
     30 C22          5.1370    -2.4600    -1.1080 c5         1 VS0      -0.094400
     31 H1          -5.8520     1.7980    -0.3440 ha         1 VS0       0.124500
     32 H2          -8.2290     2.2830    -0.0610 ha         1 VS0       0.118500
     33 H3          -9.8440     0.4480     0.3280 ha         1 VS0       0.117000
     34 H4          -9.0470    -1.8920     0.4200 ha         1 VS0       0.118500
     35 H5          -6.6560    -2.3960     0.1260 ha         1 VS0       0.124500
     36 H6          -4.1280     1.0300     0.6240 hn         1 VS0       0.153000
     37 H7          -2.1480    -1.2670    -1.5250 ha         1 VS0       0.126500
     38 H8           0.2760    -1.1850    -1.5510 ha         1 VS0       0.120500
     39 H9           0.2440     1.7170     1.5950 ha         1 VS0       0.120500
     40 H10         -2.1900     1.6710     1.6070 ha         1 VS0       0.126500
     41 H11          0.7990     3.0140    -0.3880 hn         1 VS0       0.492500
     42 H12          1.7190     4.4540    -0.3250 hn         1 VS0       0.492500
     43 H13          5.9900     3.4180     0.0860 h5         1 VS0       0.043100
     44 H14          2.3760    -1.8940     0.0240 h4         1 VS0       0.221000
     45 H15          6.0330    -0.8750     0.0870 h1         1 VS0       0.095700
     46 H16          6.0840    -2.3520     1.8290 hc         1 VS0       0.056450
     47 H17          4.3820    -2.0250     2.0940 hc         1 VS0       0.056450
     48 H18          5.1830    -4.5640     1.5320 hc         1 VS0       0.047700
     49 H19          3.7430    -3.9540     0.7280 hc         1 VS0       0.047700
     50 H20          6.5870    -3.9000    -0.3820 hc         1 VS0       0.047700
     51 H21          5.1880    -4.6490    -1.1440 hc         1 VS0       0.047700
     52 H22          4.1380    -2.5150    -1.5480 hc         1 VS0       0.056450
     53 H23          5.8140    -2.1310    -1.8970 hc         1 VS0       0.056450
@<TRIPOS>BOND
     1     1     2 2   
     2     2     3 1   
     3     2     9 1   
     4     3     4 ar  
     5     3     8 ar  
     6     4     5 ar  
     7     4    31 1   
     8     5     6 ar  
     9     5    32 1   
    10     6     7 ar  
    11     6    33 1   
    12     7     8 ar  
    13     7    34 1   
    14     8    35 1   
    15     9    10 1   
    16     9    36 1   
    17    10    11 ar  
    18    10    15 ar  
    19    11    12 ar  
    20    11    37 1   
    21    12    13 ar  
    22    12    38 1   
    23    13    14 ar  
    24    13    16 1   
    25    14    15 ar  
    26    14    39 1   
    27    15    40 1   
    28    16    17 1   
    29    16    25 2   
    30    17    18 ar  
    31    17    23 ar  
    32    18    19 1   
    33    18    20 ar  
    34    19    41 1   
    35    19    42 1   
    36    20    21 ar  
    37    21    22 ar  
    38    21    43 1   
    39    22    23 ar  
    40    23    24 1   
    41    24    25 1   
    42    24    26 1   
    43    25    44 1   
    44    26    27 1   
    45    26    30 1   
    46    26    45 1   
    47    27    28 1   
    48    27    46 1   
    49    27    47 1   
    50    28    29 1   
    51    28    48 1   
    52    28    49 1   
    53    29    30 1   
    54    29    50 1   
    55    29    51 1   
    56    30    52 1   
    57    30    53 1   
@<TRIPOS>SUBSTRUCTURE
     1 VS0         1 TEMP              0 ****  ****    0 ROOT
