@<TRIPOS>MOLECULE
VS0
   53    57     1     0     0
SMALL
No Charge or Current Charge


@<TRIPOS>ATOM
      1 O30         -4.6640    -1.1210    -1.6290 o          1 VS0      -0.577100
      2 C19         -4.8760    -0.3870    -0.6700 c          1 VS0       0.619700
      3 C15         -6.2950    -0.0800    -0.2180 ca         1 VS0      -0.156600
      4 C6          -6.5710     0.7640     0.8890 ca         1 VS0      -0.071000
      5 C2          -7.8970     1.0240     1.2770 ca         1 VS0      -0.119000
      6 C1          -8.9670     0.4490     0.5730 ca         1 VS0      -0.086000
      7 C3          -8.7100    -0.3880    -0.5220 ca         1 VS0      -0.119000
      8 C7          -7.3860    -0.6510    -0.9150 ca         1 VS0      -0.071000
      9 N29         -3.8630     0.2200     0.0660 ns         1 VS0      -0.145000
     10 C16         -2.4440     0.1700    -0.0250 ca         1 VS0      -0.025000
     11 C8          -1.7430    -0.6900    -0.8990 ca         1 VS0      -0.145000
     12 C4          -0.3360    -0.6840    -0.9270 ca         1 VS0      -0.086000
     13 C13          0.3930     0.1800    -0.0900 ca         1 VS0      -0.039800
     14 C5          -0.3030     1.0240     0.7930 ca         1 VS0      -0.086000
     15 C9          -1.7080     1.0200     0.8220 ca         1 VS0      -0.145000
     16 C14          1.8530     0.1720    -0.1180 cc         1 VS0      -0.058400
     17 C12          2.8000     1.2440    -0.1870 ca         1 VS0      -0.242800
     18 C18          2.6640     2.6230    -0.3900 ca         1 VS0       0.426900
     19 N28          1.4710     3.2360    -0.5790 nv         1 VS0      -1.067900
     20 N26          3.7420     3.4160    -0.4470 nb         1 VS0      -0.303000
     21 C11          4.9400     2.8010    -0.3030 ca         1 VS0       0.177900
     22 N25          5.1550     1.4750    -0.1260 nb         1 VS0      -0.234000
     23 C17          4.0550     0.6940    -0.0740 ca         1 VS0       0.148500
     24 N27          3.9510    -0.6920     0.0630 na         1 VS0      -0.172400
     25 C10          2.5670    -1.0020     0.0300 cd         1 VS0      -0.161100
     26 C24          5.0510    -1.6510     0.2180 c5         1 VS0       0.079300
     27 C23          4.9890    -2.5160     1.5020 c5         1 VS0      -0.094400
     28 C21          6.1440    -3.5310     1.2680 c5         1 VS0      -0.081900
     29 C20          6.2110    -3.7070    -0.2850 c5         1 VS0      -0.081900
     30 C22          5.0850    -2.7850    -0.8360 c5         1 VS0      -0.094400
     31 H1          -5.7720     1.2290     1.4620 ha         1 VS0       0.124500
     32 H2          -8.0960     1.6730     2.1270 ha         1 VS0       0.118500
     33 H3          -9.9920     0.6530     0.8770 ha         1 VS0       0.117000
     34 H4          -9.5370    -0.8350    -1.0700 ha         1 VS0       0.118500
     35 H5          -7.2130    -1.3040    -1.7690 ha         1 VS0       0.124500
     36 H6          -4.1970     0.8110     0.8140 hn         1 VS0       0.153000
     37 H7          -2.2630    -1.3750    -1.5610 ha         1 VS0       0.126500
     38 H8           0.1890    -1.3500    -1.6080 ha         1 VS0       0.120500
     39 H9           0.2480     1.6780     1.4650 ha         1 VS0       0.120500
     40 H10         -2.2260     1.6820     1.5130 ha         1 VS0       0.126500
     41 H11          0.6650     2.6460    -0.7610 hn         1 VS0       0.492500
     42 H12          1.4640     4.1690    -0.9830 hn         1 VS0       0.492500
     43 H13          5.8240     3.4360    -0.3450 h5         1 VS0       0.043100
     44 H14          2.1990    -2.0170     0.1410 h4         1 VS0       0.221000
     45 H15          6.0020    -1.0990     0.1940 h1         1 VS0       0.095700
     46 H16          5.1360    -1.9220     2.4110 hc         1 VS0       0.056450
     47 H17          4.0240    -3.0270     1.6030 hc         1 VS0       0.056450
     48 H18          7.0940    -3.1420     1.6530 hc         1 VS0       0.047700
     49 H19          5.9580    -4.4800     1.7830 hc         1 VS0       0.047700
     50 H20          7.1920    -3.3990    -0.6650 hc         1 VS0       0.047700
     51 H21          6.0660    -4.7490    -0.5900 hc         1 VS0       0.047700
     52 H22          4.1280    -3.3170    -0.8940 hc         1 VS0       0.056450
     53 H23          5.3100    -2.4120    -1.8410 hc         1 VS0       0.056450
@<TRIPOS>BOND
     1     1     2 2   
     2     2     3 1   
     3     2     9 1   
     4     3     4 ar  
     5     3     8 ar  
     6     4     5 ar  
     7     4    31 1   
     8     5     6 ar  
     9     5    32 1   
    10     6     7 ar  
    11     6    33 1   
    12     7     8 ar  
    13     7    34 1   
    14     8    35 1   
    15     9    10 1   
    16     9    36 1   
    17    10    11 ar  
    18    10    15 ar  
    19    11    12 ar  
    20    11    37 1   
    21    12    13 ar  
    22    12    38 1   
    23    13    14 ar  
    24    13    16 1   
    25    14    15 ar  
    26    14    39 1   
    27    15    40 1   
    28    16    17 1   
    29    16    25 2   
    30    17    18 ar  
    31    17    23 ar  
    32    18    19 1   
    33    18    20 ar  
    34    19    41 1   
    35    19    42 1   
    36    20    21 ar  
    37    21    22 ar  
    38    21    43 1   
    39    22    23 ar  
    40    23    24 1   
    41    24    25 1   
    42    24    26 1   
    43    25    44 1   
    44    26    27 1   
    45    26    30 1   
    46    26    45 1   
    47    27    28 1   
    48    27    46 1   
    49    27    47 1   
    50    28    29 1   
    51    28    48 1   
    52    28    49 1   
    53    29    30 1   
    54    29    50 1   
    55    29    51 1   
    56    30    52 1   
    57    30    53 1   
@<TRIPOS>SUBSTRUCTURE
     1 VS0         1 TEMP              0 ****  ****    0 ROOT
