@<TRIPOS>MOLECULE
VS1
   77    80     1     0     0
SMALL
No Charge or Current Charge


@<TRIPOS>ATOM
      1 N1           0.8630     0.4950    -2.3900 ns         1 VS1      -0.503900
      2 C3           0.3630    -0.3480    -1.2800 c3         1 VS1       0.040700
      3 C12          1.5350    -0.8350    -0.3840 c3         1 VS1      -0.052100
      4 C14          2.6500    -1.5260    -1.1630 ca         1 VS1      -0.085300
      5 C15          3.7940    -0.8050    -1.5590 ca         1 VS1      -0.101000
      6 C16          4.8140    -1.4400    -2.2900 ca         1 VS1      -0.105500
      7 C17          4.6980    -2.7990    -2.6250 ca         1 VS1      -0.104000
      8 C18          3.5600    -3.5230    -2.2290 ca         1 VS1      -0.105500
      9 C19          2.5390    -2.8880    -1.5010 ca         1 VS1      -0.101000
     10 C11         -0.6970     0.4200    -0.4410 c          1 VS1       0.594100
     11 N20         -1.4170    -0.3630     0.4380 ns         1 VS1      -0.499900
     12 C21         -2.4100     0.1380     1.3950 c3         1 VS1       0.112700
     13 C23         -3.8170    -0.4200     1.0750 c3         1 VS1      -0.090400
     14 C24         -4.3430    -0.0370    -0.3280 c3         1 VS1      -0.029100
     15 C29         -5.7570    -0.5480    -0.5640 ca         1 VS1      -0.082300
     16 C30         -6.8670     0.2690    -0.2740 ca         1 VS1      -0.107000
     17 C31         -8.1730    -0.2060    -0.4880 ca         1 VS1      -0.108500
     18 C32         -8.3760    -1.5020    -0.9930 ca         1 VS1      -0.110000
     19 C33         -7.2730    -2.3220    -1.2820 ca         1 VS1      -0.108500
     20 C34         -5.9670    -1.8470    -1.0680 ca         1 VS1      -0.107000
     21 S26         -0.0460     0.0390     4.8900 sy         1 VS1       1.044500
     22 C35          1.6060     0.7630     4.9600 ca         1 VS1      -0.266500
     23 C36          1.7800     2.0960     5.3910 ca         1 VS1      -0.017000
     24 C37          3.0680     2.6580     5.4290 ca         1 VS1      -0.127500
     25 C38          4.1830     1.9000     5.0350 ca         1 VS1      -0.055000
     26 C39          4.0110     0.5740     4.6010 ca         1 VS1      -0.127500
     27 C40          2.7270     0.0040     4.5610 ca         1 VS1      -0.017000
     28 O36         -0.9390     0.8030     5.7710 o          1 VS1      -0.523000
     29 O35          0.0750    -1.4200     5.0070 o          1 VS1      -0.523000
     30 O13         -0.8820     1.6280    -0.5400 o          1 VS1      -0.610100
     31 C2           1.1360     0.0510    -3.6610 c          1 VS1       0.659100
     32 O10          0.8630    -1.0830    -4.0230 o          1 VS1      -0.639100
     33 N4           1.7400     0.9890    -4.5230 n          1 VS1      -0.405800
     34 C5           2.2610     0.5310    -5.8520 c6         1 VS1       0.058500
     35 C6           2.6740     1.6570    -6.8320 c6         1 VS1       0.143100
     36 O7           3.4420     2.6640    -6.1500 os         1 VS1      -0.444000
     37 C8           2.6790     3.3180    -5.1220 c6         1 VS1       0.143100
     38 C9           2.2550     2.3090    -4.0230 c6         1 VS1       0.058500
     39 C22         -1.9640    -0.1800     2.8420 c3         1 VS1      -0.066400
     40 H1           1.0670     1.4660    -2.1950 hn         1 VS1       0.323500
     41 H31         -0.1450    -1.2260    -1.7000 h1         1 VS1       0.096700
     42 H121         1.9430     0.0260     0.1620 hc         1 VS1       0.056200
     43 H122         1.1470    -1.5160     0.3830 hc         1 VS1       0.056200
     44 H151         3.8910     0.2480    -1.3090 ha         1 VS1       0.108000
     45 H161         5.6930    -0.8770    -2.5970 ha         1 VS1       0.113500
     46 H171         5.4870    -3.2900    -3.1900 ha         1 VS1       0.114000
     47 H181         3.4680    -4.5760    -2.4900 ha         1 VS1       0.113500
     48 H191         1.6590    -3.4550    -1.2040 ha         1 VS1       0.108000
     49 H2          -1.2060    -1.3530     0.4470 hn         1 VS1       0.316500
     50 H211        -2.4650     1.2320     1.3090 h1         1 VS1       0.085700
     51 H231        -3.8050    -1.5130     1.1680 hc         1 VS1       0.051700
     52 H232        -4.5240    -0.0480     1.8260 hc         1 VS1       0.051700
     53 H241        -4.3120     1.0540    -0.4380 hc         1 VS1       0.054200
     54 H242        -3.6710    -0.4390    -1.0960 hc         1 VS1       0.054200
     55 H301        -6.7190     1.2720     0.1200 ha         1 VS1       0.110000
     56 H311        -9.0260     0.4300    -0.2620 ha         1 VS1       0.112000
     57 H321        -9.3870    -1.8690    -1.1580 ha         1 VS1       0.112000
     58 H331        -7.4290    -3.3260    -1.6720 ha         1 VS1       0.112000
     59 H341        -5.1190    -2.4890    -1.2920 ha         1 VS1       0.110000
     60 H251         0.2060    -0.0530     2.5440 h1         1 VS1       0.100200
     61 H252        -0.5450     1.4740     3.0730 h1         1 VS1       0.100200
     62 H361         0.9250     2.6980     5.6960 ha         1 VS1       0.136500
     63 H372         3.2010     3.6850     5.7630 ha         1 VS1       0.122000
     64 H381         5.1780     2.3380     5.0650 ha         1 VS1       0.118000
     65 H391         4.8740    -0.0120     4.2940 ha         1 VS1       0.122000
     66 H401         2.6090    -1.0230     4.2180 ha         1 VS1       0.136500
     67 H51          3.1340    -0.1120    -5.6730 h1         1 VS1       0.054950
     68 H52          1.5020    -0.0930    -6.3450 h1         1 VS1       0.054950
     69 H61          3.2730     1.2380    -7.6530 h1         1 VS1       0.054950
     70 H62          1.7780     2.1210    -7.2690 h1         1 VS1       0.054950
     71 H81          3.2830     4.1230    -4.6780 h1         1 VS1       0.054950
     72 H82          1.7860     3.7760    -5.5720 h1         1 VS1       0.054950
     73 H91          1.4880     2.7960    -3.4050 h1         1 VS1       0.054950
     74 H92          3.1220     2.1160    -3.3740 h1         1 VS1       0.054950
     75 H221        -2.7050     0.2330     3.5390 hc         1 VS1       0.065700
     76 H222        -1.9660    -1.2690     2.9870 hc         1 VS1       0.065700
     77 C25         -0.5600     0.3850     3.1920 c3         1 VS1      -0.296400
@<TRIPOS>BOND
     1     1     2 1   
     2     1    31 1   
     3     1    40 1   
     4     2     3 1   
     5     2    10 1   
     6     2    41 1   
     7     3     4 1   
     8     3    42 1   
     9     3    43 1   
    10     4     5 ar  
    11     4     9 ar  
    12     5     6 ar  
    13     5    44 1   
    14     6     7 ar  
    15     6    45 1   
    16     7     8 ar  
    17     7    46 1   
    18     8     9 ar  
    19     8    47 1   
    20     9    48 1   
    21    10    11 1   
    22    10    30 2   
    23    11    12 1   
    24    11    49 1   
    25    12    13 1   
    26    12    39 1   
    27    12    50 1   
    28    13    14 1   
    29    13    51 1   
    30    13    52 1   
    31    14    15 1   
    32    14    53 1   
    33    14    54 1   
    34    15    16 ar  
    35    15    20 ar  
    36    16    17 ar  
    37    16    55 1   
    38    17    18 ar  
    39    17    56 1   
    40    18    19 ar  
    41    18    57 1   
    42    19    20 ar  
    43    19    58 1   
    44    20    59 1   
    45    21    22 1   
    46    21    28 2   
    47    21    29 2   
    48    21    77 1   
    49    22    23 ar  
    50    22    27 ar  
    51    23    24 ar  
    52    23    62 1   
    53    24    25 ar  
    54    24    63 1   
    55    25    26 ar  
    56    25    64 1   
    57    26    27 ar  
    58    26    65 1   
    59    27    66 1   
    60    31    32 2   
    61    31    33 1   
    62    33    34 1   
    63    33    38 1   
    64    34    35 1   
    65    34    67 1   
    66    34    68 1   
    67    35    36 1   
    68    35    69 1   
    69    35    70 1   
    70    36    37 1   
    71    37    38 1   
    72    37    71 1   
    73    37    72 1   
    74    38    73 1   
    75    38    74 1   
    76    39    75 1   
    77    39    76 1   
    78    39    77 1   
    79    60    77 1   
    80    61    77 1   
@<TRIPOS>SUBSTRUCTURE
     1 VS1         1 TEMP              0 ****  ****    0 ROOT
