@<TRIPOS>MOLECULE
VS1
   77    80     1     0     0
SMALL
bcc


@<TRIPOS>ATOM
      1 N1           0.8790     0.5670    -2.2500 ns         1 VS1      -0.570900
      2 C3           0.5870    -0.2260    -1.0880 c3         1 VS1       0.040700
      3 C12          1.8590    -0.5140    -0.2580 c3         1 VS1      -0.052100
      4 C14          2.9170    -1.1670    -1.0970 ca         1 VS1      -0.085300
      5 C15          3.8850    -0.4000    -1.7400 ca         1 VS1      -0.119000
      6 C16          4.8170    -0.9910    -2.5830 ca         1 VS1      -0.123500
      7 C17          4.7980    -2.3640    -2.7860 ca         1 VS1      -0.122000
      8 C18          3.8420    -3.1400    -2.1420 ca         1 VS1      -0.123500
      9 C19          2.9080    -2.5430    -1.3080 ca         1 VS1      -0.119000
     10 C11         -0.4110     0.5190    -0.2090 c          1 VS1       0.661100
     11 N20         -1.3080    -0.2610     0.4120 ns         1 VS1      -0.566900
     12 C21         -2.3060     0.2150     1.3490 c3         1 VS1       0.112700
     13 C23         -3.6900    -0.3050     0.9700 c3         1 VS1      -0.090400
     14 C24         -4.1430     0.1380    -0.4210 c3         1 VS1      -0.029100
     15 C29         -5.5270    -0.3610    -0.7300 ca         1 VS1      -0.082300
     16 C30         -6.6510     0.3810    -0.3720 ca         1 VS1      -0.125000
     17 C31         -7.9300    -0.1010    -0.6130 ca         1 VS1      -0.126500
     18 C32         -8.1060    -1.3400    -1.2170 ca         1 VS1      -0.128000
     19 C33         -6.9940    -2.0880    -1.5800 ca         1 VS1      -0.126500
     20 C34         -5.7170    -1.6010    -1.3370 ca         1 VS1      -0.125000
     21 S26         -0.2160    -0.0530     4.8920 sy         1 VS1       1.075300
     22 C35          1.4320     0.5630     5.1100 ca         1 VS1      -0.266500
     23 C36          1.6160     1.8540     5.5880 ca         1 VS1      -0.035000
     24 C37          2.9090     2.3350     5.7340 ca         1 VS1      -0.145500
     25 C38          3.9930     1.5330     5.4040 ca         1 VS1      -0.073000
     26 C39          3.7940     0.2430     4.9280 ca         1 VS1      -0.145500
     27 C40          2.5070    -0.2520     4.7800 ca         1 VS1      -0.035000
     28 O36         -1.1190     0.7200     5.7430 o          1 VS1      -0.593800
     29 O35         -0.1920    -1.5080     5.0370 o          1 VS1      -0.593800
     30 O13         -0.3380     1.7300    -0.0640 o          1 VS1      -0.610100
     31 C2           1.0080     0.0080    -3.4850 c          1 VS1       0.793100
     32 O10          0.6350    -1.1360    -3.7150 o          1 VS1      -0.639100
     33 N4           1.5220     0.8100    -4.4730 n          1 VS1      -0.472800
     34 C5           1.8760     0.1700    -5.7310 c6         1 VS1       0.058500
     35 C6           1.8420     1.1810    -6.8590 c6         1 VS1       0.119900
     36 O7           2.6710     2.2900    -6.5930 os         1 VS1      -0.397600
     37 C8           2.2610     2.9360    -5.4130 c6         1 VS1       0.119900
     38 C9           2.2990     2.0100    -4.2090 c6         1 VS1       0.058500
     39 C22         -1.9520    -0.1810     2.7850 c3         1 VS1      -0.066400
     40 H1           1.2350     1.4890    -2.0640 hn         1 VS1       0.323500
     41 H31          0.1630    -1.1720    -1.4230 h1         1 VS1       0.096700
     42 H121         2.2300     0.4270     0.1570 hc         1 VS1       0.056200
     43 H122         1.5900    -1.1540     0.5860 hc         1 VS1       0.056200
     44 H151         3.9130     0.6710    -1.5780 ha         1 VS1       0.126000
     45 H161         5.5600    -0.3790    -3.0770 ha         1 VS1       0.131500
     46 H171         5.5260    -2.8290    -3.4380 ha         1 VS1       0.132000
     47 H181         3.8240    -4.2120    -2.2910 ha         1 VS1       0.131500
     48 H191         2.1610    -3.1550    -0.8140 ha         1 VS1       0.126000
     49 H2          -1.2970    -1.2520     0.2180 hn         1 VS1       0.316500
     50 H211        -2.3120     1.3050     1.2800 h1         1 VS1       0.085700
     51 H231        -3.7030    -1.3980     1.0310 hc         1 VS1       0.051700
     52 H232        -4.4040     0.0540     1.7150 hc         1 VS1       0.051700
     53 H241        -4.1190     1.2300    -0.4780 hc         1 VS1       0.054200
     54 H242        -3.4430    -0.2330    -1.1720 hc         1 VS1       0.054200
     55 H301        -6.5220     1.3490     0.0990 ha         1 VS1       0.128000
     56 H311        -8.7910     0.4920    -0.3310 ha         1 VS1       0.130000
     57 H321        -9.1030    -1.7180    -1.4050 ha         1 VS1       0.130000
     58 H331        -7.1220    -3.0520    -2.0570 ha         1 VS1       0.130000
     59 H341        -4.8540    -2.1900    -1.6270 ha         1 VS1       0.128000
     60 H251         0.2130    -0.1290     2.5890 h1         1 VS1       0.100200
     61 H252        -0.4980     1.4190     3.0800 h1         1 VS1       0.100200
     62 H361         0.7710     2.4770     5.8470 ha         1 VS1       0.154500
     63 H372         3.0680     3.3370     6.1100 ha         1 VS1       0.140000
     64 H381         4.9990     1.9140     5.5210 ha         1 VS1       0.136000
     65 H391         4.6400    -0.3810     4.6760 ha         1 VS1       0.140000
     66 H401         2.3530    -1.2600     4.4180 ha         1 VS1       0.154500
     67 H51          2.8750    -0.2790    -5.6620 h1         1 VS1       0.054950
     68 H52          1.1710    -0.6260    -5.9530 h1         1 VS1       0.054950
     69 H61          2.1990     0.7160    -7.7780 h1         1 VS1       0.054950
     70 H62          0.8060     1.5100    -7.0260 h1         1 VS1       0.054950
     71 H81          2.9350     3.7760    -5.2420 h1         1 VS1       0.054950
     72 H82          1.2430     3.3350    -5.5260 h1         1 VS1       0.054950
     73 H91          1.8930     2.5800    -3.3740 h1         1 VS1       0.054950
     74 H92          3.3370     1.7520    -3.9620 h1         1 VS1       0.054950
     75 H221        -2.7140     0.2340     3.4480 hc         1 VS1       0.065700
     76 H222        -1.9870    -1.2680     2.8850 hc         1 VS1       0.065700
     77 C25         -0.5770     0.3350     3.1820 c3         1 VS1      -0.185600
@<TRIPOS>BOND
     1     1     2 1   
     2     1    31 1   
     3     1    40 1   
     4     2     3 1   
     5     2    10 1   
     6     2    41 1   
     7     3     4 1   
     8     3    42 1   
     9     3    43 1   
    10     4     5 ar  
    11     4     9 ar  
    12     5     6 ar  
    13     5    44 1   
    14     6     7 ar  
    15     6    45 1   
    16     7     8 ar  
    17     7    46 1   
    18     8     9 ar  
    19     8    47 1   
    20     9    48 1   
    21    10    11 1   
    22    10    30 2   
    23    11    12 1   
    24    11    49 1   
    25    12    13 1   
    26    12    39 1   
    27    12    50 1   
    28    13    14 1   
    29    13    51 1   
    30    13    52 1   
    31    14    15 1   
    32    14    53 1   
    33    14    54 1   
    34    15    16 ar  
    35    15    20 ar  
    36    16    17 ar  
    37    16    55 1   
    38    17    18 ar  
    39    17    56 1   
    40    18    19 ar  
    41    18    57 1   
    42    19    20 ar  
    43    19    58 1   
    44    20    59 1   
    45    21    22 1   
    46    21    28 2   
    47    21    29 2   
    48    21    77 1   
    49    22    23 ar  
    50    22    27 ar  
    51    23    24 ar  
    52    23    62 1   
    53    24    25 ar  
    54    24    63 1   
    55    25    26 ar  
    56    25    64 1   
    57    26    27 ar  
    58    26    65 1   
    59    27    66 1   
    60    31    32 2   
    61    31    33 1   
    62    33    34 1   
    63    33    38 1   
    64    34    35 1   
    65    34    67 1   
    66    34    68 1   
    67    35    36 1   
    68    35    69 1   
    69    35    70 1   
    70    36    37 1   
    71    37    38 1   
    72    37    71 1   
    73    37    72 1   
    74    38    73 1   
    75    38    74 1   
    76    39    75 1   
    77    39    76 1   
    78    39    77 1   
    79    60    77 1   
    80    61    77 1   
@<TRIPOS>SUBSTRUCTURE
     1 VS1         1 TEMP              0 ****  ****    0 ROOT
