@<TRIPOS>MOLECULE
VS2
   81    84     1     0     0
SMALL
abcg2


@<TRIPOS>ATOM
      1 C1          -2.0290    -0.8840    -6.6930 ca         1 VS2      -0.100300
      2 C2          -3.3610    -1.1640    -6.3960 ca         1 VS2      -0.085500
      3 C3          -4.0540    -2.1300    -7.1100 ca         1 VS2      -0.115500
      4 C4          -3.4210    -2.8270    -8.1330 ca         1 VS2      -0.098000
      5 C5          -2.0950    -2.5530    -8.4370 ca         1 VS2      -0.115500
      6 C6          -1.4030    -1.5870    -7.7160 ca         1 VS2      -0.085500
      7 C7          -1.2840     0.1480    -5.9020 c3         1 VS2       0.229900
      8 O1          -1.0210    -0.4240    -4.6170 os         1 VS2      -0.454100
      9 C8          -0.5220     0.3930    -3.6840 c          1 VS2       0.643100
     10 O2          -0.2130     1.5470    -3.8860 o          1 VS2      -0.539000
     11 N1          -0.3850    -0.2620    -2.5100 ns         1 VS2      -0.481900
     12 C9          -0.1420     0.4330    -1.2770 c3         1 VS2       0.041700
     13 C10         -1.4580     0.7280    -0.5170 c3         1 VS2      -0.053100
     14 C11         -2.4280     1.4740    -1.3850 ca         1 VS2      -0.091300
     15 C12         -3.3550     0.7880    -2.1650 ca         1 VS2      -0.097500
     16 C13         -4.1950     1.4700    -3.0350 ca         1 VS2      -0.106500
     17 C14         -4.1240     2.8530    -3.1290 ca         1 VS2      -0.103000
     18 C15         -3.2130     3.5490    -2.3440 ca         1 VS2      -0.106500
     19 C16         -2.3700     2.8620    -1.4820 ca         1 VS2      -0.097500
     20 C17          0.7530    -0.4210    -0.3860 c          1 VS2       0.595100
     21 O3           0.6930    -1.6400    -0.4160 o          1 VS2      -0.602100
     22 N2           1.5360     0.2780     0.4500 ns         1 VS2      -0.502900
     23 C18          2.3920    -0.3070     1.4630 c3         1 VS2       0.113700
     24 C19          3.8040     0.2640     1.3630 c3         1 VS2      -0.090400
     25 C20          4.4790    -0.0380     0.0260 c3         1 VS2      -0.029100
     26 C21          5.8830     0.4980    -0.0220 ca         1 VS2      -0.083300
     27 C22          6.9480    -0.2480     0.4780 ca         1 VS2      -0.106500
     28 C23          8.2410     0.2580     0.4660 ca         1 VS2      -0.108000
     29 C24          8.4880     1.5260    -0.0460 ca         1 VS2      -0.110000
     30 C25          7.4340     2.2800    -0.5440 ca         1 VS2      -0.108000
     31 C26          6.1430     1.7680    -0.5310 ca         1 VS2      -0.106500
     32 S1          -0.1530    -0.5290     4.6920 s6         1 VS2       1.055000
     33 O4           0.6910    -1.3330     5.5770 o          1 VS2      -0.512500
     34 O5          -0.2830     0.8980     4.9860 o          1 VS2      -0.512500
     35 C29         -1.8030    -1.2580     4.6580 c3         1 VS2      -0.222100
     36 C30         -2.4110    -1.1230     6.0170 ca         1 VS2      -0.093300
     37 C31         -3.1490     0.0110     6.3440 ca         1 VS2      -0.080000
     38 C32         -3.6950     0.1500     7.6120 ca         1 VS2      -0.109000
     39 C33         -3.4980    -0.8390     8.5660 ca         1 VS2      -0.094000
     40 C34         -2.7550    -1.9690     8.2480 ca         1 VS2      -0.109000
     41 C35         -2.2100    -2.1090     6.9800 ca         1 VS2      -0.080000
     42 C27          1.8170    -0.0890     2.8650 c3         1 VS2      -0.067400
     43 H21         -3.8620    -0.6200    -5.6030 ha         1 VS2       0.114000
     44 H31         -5.0900    -2.3370    -6.8720 ha         1 VS2       0.114000
     45 H41         -3.9640    -3.5790    -8.6910 ha         1 VS2       0.113000
     46 H51         -1.5970    -3.0910    -9.2320 ha         1 VS2       0.114000
     47 H61         -0.3670    -1.3780    -7.9540 ha         1 VS2       0.114000
     48 H71         -1.8830     1.0540    -5.7910 h1         1 VS2       0.057700
     49 H72         -0.3490     0.4190    -6.3970 h1         1 VS2       0.057700
     50 HN11        -0.7340    -1.2060    -2.4450 hn         1 VS2       0.340500
     51 H91          0.3500     1.3780    -1.5120 h1         1 VS2       0.093700
     52 H101        -1.8930    -0.2190    -0.1890 hc         1 VS2       0.055200
     53 H102        -1.2230     1.3040     0.3810 hc         1 VS2       0.055200
     54 H121        -3.4250    -0.2910    -2.0920 ha         1 VS2       0.110500
     55 H131        -4.9090     0.9190    -3.6350 ha         1 VS2       0.113000
     56 H141        -4.7790     3.3890    -3.8050 ha         1 VS2       0.114000
     57 H151        -3.1560     4.6280    -2.4060 ha         1 VS2       0.113000
     58 H161        -1.6550     3.4110    -0.8810 ha         1 VS2       0.110500
     59 HN21         1.5290     1.2860     0.3820 hn         1 VS2       0.315500
     60 H181         2.4340    -1.3790     1.2640 h1         1 VS2       0.085700
     61 H191         3.7770     1.3460     1.5320 hc         1 VS2       0.052200
     62 H192         4.4000    -0.1600     2.1760 hc         1 VS2       0.052200
     63 H201         4.4880    -1.1200    -0.1340 hc         1 VS2       0.053200
     64 H202         3.8950     0.3960    -0.7890 hc         1 VS2       0.053200
     65 H221         6.7630    -1.2400     0.8770 ha         1 VS2       0.110500
     66 H231         9.0570    -0.3390     0.8510 ha         1 VS2       0.112500
     67 H241         9.4950     1.9210    -0.0620 ha         1 VS2       0.113000
     68 H251         7.6180     3.2680    -0.9490 ha         1 VS2       0.112500
     69 H261         5.3250     2.3620    -0.9260 ha         1 VS2       0.110500
     70 H281        -0.3000    -0.2230     2.3710 h1         1 VS2       0.097200
     71 H282         0.4450    -1.7800     2.7860 h1         1 VS2       0.097200
     72 H291        -2.3690    -0.7260     3.8930 h1         1 VS2       0.097700
     73 H292        -1.6820    -2.2980     4.3510 h1         1 VS2       0.097700
     74 H311        -3.3080     0.7830     5.6010 ha         1 VS2       0.120000
     75 H321        -4.2740     1.0320     7.8550 ha         1 VS2       0.117500
     76 H331        -3.9250    -0.7320     9.5550 ha         1 VS2       0.115000
     77 H341        -2.6000    -2.7420     8.9890 ha         1 VS2       0.117500
     78 H351        -1.6370    -2.9930     6.7320 ha         1 VS2       0.120000
     79 H271         2.5050    -0.5360     3.5850 hc         1 VS2       0.067200
     80 H272         1.7680     0.9810     3.0790 hc         1 VS2       0.067200
     81 C28          0.4360    -0.7120     3.0110 c3         1 VS2      -0.298400
@<TRIPOS>BOND
     1     1     2 ar  
     2     1     6 ar  
     3     1     7 1   
     4     2     3 ar  
     5     2    43 1   
     6     3     4 ar  
     7     3    44 1   
     8     4     5 ar  
     9     4    45 1   
    10     5     6 ar  
    11     5    46 1   
    12     6    47 1   
    13     7     8 1   
    14     7    48 1   
    15     7    49 1   
    16     8     9 1   
    17     9    10 2   
    18     9    11 1   
    19    11    12 1   
    20    11    50 1   
    21    12    13 1   
    22    12    20 1   
    23    12    51 1   
    24    13    14 1   
    25    13    52 1   
    26    13    53 1   
    27    14    15 ar  
    28    14    19 ar  
    29    15    16 ar  
    30    15    54 1   
    31    16    17 ar  
    32    16    55 1   
    33    17    18 ar  
    34    17    56 1   
    35    18    19 ar  
    36    18    57 1   
    37    19    58 1   
    38    20    21 2   
    39    20    22 1   
    40    22    23 1   
    41    22    59 1   
    42    23    24 1   
    43    23    42 1   
    44    23    60 1   
    45    24    25 1   
    46    24    61 1   
    47    24    62 1   
    48    25    26 1   
    49    25    63 1   
    50    25    64 1   
    51    26    27 ar  
    52    26    31 ar  
    53    27    28 ar  
    54    27    65 1   
    55    28    29 ar  
    56    28    66 1   
    57    29    30 ar  
    58    29    67 1   
    59    30    31 ar  
    60    30    68 1   
    61    31    69 1   
    62    32    33 2   
    63    32    34 2   
    64    32    35 1   
    65    32    81 1   
    66    35    36 1   
    67    35    72 1   
    68    35    73 1   
    69    36    37 ar  
    70    36    41 ar  
    71    37    38 ar  
    72    37    74 1   
    73    38    39 ar  
    74    38    75 1   
    75    39    40 ar  
    76    39    76 1   
    77    40    41 ar  
    78    40    77 1   
    79    41    78 1   
    80    42    79 1   
    81    42    80 1   
    82    42    81 1   
    83    70    81 1   
    84    71    81 1   
@<TRIPOS>SUBSTRUCTURE
     1 VS2         1 TEMP              0 ****  ****    0 ROOT
