@<TRIPOS>MOLECULE
VS2
   81    84     1     0     0
SMALL
No Charge or Current Charge


@<TRIPOS>ATOM
      1 C1          -1.8800    -1.1190    -6.8680 ca         1 VS2      -0.100300
      2 C2          -3.2400    -1.4870    -6.8950 ca         1 VS2      -0.085500
      3 C3          -3.6630    -2.5820    -7.6700 ca         1 VS2      -0.115500
      4 C4          -2.7290    -3.3150    -8.4220 ca         1 VS2      -0.098000
      5 C5          -1.3710    -2.9530    -8.3970 ca         1 VS2      -0.115500
      6 C6          -0.9470    -1.8590    -7.6220 ca         1 VS2      -0.085500
      7 C7          -1.4240     0.0670    -6.0290 c3         1 VS2       0.229900
      8 O1          -1.1540    -0.3970    -4.6970 os         1 VS2      -0.454100
      9 C8          -0.7560     0.5260    -3.7810 c          1 VS2       0.643100
     10 O2          -0.5670     1.7120    -3.9980 o          1 VS2      -0.539000
     11 N1          -0.5610    -0.1000    -2.5830 ns         1 VS2      -0.481900
     12 C9          -0.1860     0.5730    -1.3200 c3         1 VS2       0.041700
     13 C10         -1.4430     0.9380    -0.4840 c3         1 VS2      -0.053100
     14 C11         -2.4450     1.8040    -1.2410 ca         1 VS2      -0.091300
     15 C12         -3.5760     1.2210    -1.8470 ca         1 VS2      -0.097500
     16 C13         -4.4920     2.0200    -2.5530 ca         1 VS2      -0.106500
     17 C14         -4.2850     3.4060    -2.6550 ca         1 VS2      -0.103000
     18 C15         -3.1600     3.9920    -2.0510 ca         1 VS2      -0.106500
     19 C16         -2.2430     3.1940    -1.3460 ca         1 VS2      -0.097500
     20 C17          0.7940    -0.3140    -0.5010 c          1 VS2       0.595100
     21 O3           1.0020    -1.4940    -0.7560 o          1 VS2      -0.602100
     22 N2           1.4210     0.3310     0.5470 ns         1 VS2      -0.502900
     23 C18          2.3550    -0.2980     1.4870 c3         1 VS2       0.113700
     24 C19          3.7940     0.2300     1.2730 c3         1 VS2      -0.090400
     25 C20          4.3630    -0.0380    -0.1400 c3         1 VS2      -0.029100
     26 C21          5.8060     0.4320    -0.2710 ca         1 VS2      -0.083300
     27 C22          6.8690    -0.4580    -0.0240 ca         1 VS2      -0.106500
     28 C23          8.2010    -0.0210    -0.1410 ca         1 VS2      -0.108000
     29 C24          8.4760     1.3080    -0.5040 ca         1 VS2      -0.110000
     30 C25          7.4190     2.2000    -0.7490 ca         1 VS2      -0.108000
     31 C26          6.0870     1.7640    -0.6330 ca         1 VS2      -0.106500
     32 S1          -0.1140    -0.4620     4.9060 s6         1 VS2       1.055000
     33 O4           0.7480    -1.2950     5.7550 o          1 VS2      -0.512500
     34 O5          -0.2250     0.9770     5.1810 o          1 VS2      -0.512500
     35 C29         -1.7790    -1.1710     4.9210 c3         1 VS2      -0.222100
     36 C30         -2.4740    -1.1210     6.2780 ca         1 VS2      -0.093300
     37 C31         -3.2650    -0.0100     6.6300 ca         1 VS2      -0.080000
     38 C32         -3.9060     0.0360     7.8800 ca         1 VS2      -0.109000
     39 C33         -3.7600    -1.0300     8.7850 ca         1 VS2      -0.094000
     40 C34         -2.9730    -2.1410     8.4370 ca         1 VS2      -0.109000
     41 C35         -2.3320    -2.1870     7.1870 ca         1 VS2      -0.080000
     42 C27          1.8670    -0.0980     2.9410 c3         1 VS2      -0.067400
     43 H21         -3.9690    -0.9260    -6.3140 ha         1 VS2       0.114000
     44 H31         -4.7140    -2.8610    -7.6870 ha         1 VS2       0.114000
     45 H41         -3.0560    -4.1620    -9.0210 ha         1 VS2       0.113000
     46 H51         -0.6470    -3.5210    -8.9770 ha         1 VS2       0.114000
     47 H61          0.1060    -1.5880    -7.6060 ha         1 VS2       0.114000
     48 H71         -2.2100     0.8340    -6.0220 h1         1 VS2       0.057700
     49 H72         -0.5240     0.5120    -6.4760 h1         1 VS2       0.057700
     50 HN11        -0.7100    -1.1010    -2.5790 hn         1 VS2       0.340500
     51 H91          0.3560     1.4970    -1.5620 h1         1 VS2       0.093700
     52 H101        -1.9250     0.0120    -0.1490 hc         1 VS2       0.055200
     53 H102        -1.1310     1.4590     0.4300 hc         1 VS2       0.055200
     54 H121        -3.7420     0.1480    -1.7770 ha         1 VS2       0.110500
     55 H131        -5.3620     1.5640    -3.0220 ha         1 VS2       0.113000
     56 H141        -4.9940     4.0230    -3.2020 ha         1 VS2       0.114000
     57 H151        -2.9980     5.0650    -2.1300 ha         1 VS2       0.113000
     58 H161        -1.3730     3.6550    -0.8850 ha         1 VS2       0.110500
     59 HN21         1.1980     1.3100     0.6800 hn         1 VS2       0.315500
     60 H181         2.3720    -1.3810     1.2990 h1         1 VS2       0.085700
     61 H191         3.8190     1.3090     1.4710 hc         1 VS2       0.052200
     62 H192         4.4560    -0.2400     2.0100 hc         1 VS2       0.052200
     63 H201         4.2940    -1.1110    -0.3580 hc         1 VS2       0.053200
     64 H202         3.7410     0.4660    -0.8900 hc         1 VS2       0.053200
     65 H221         6.6650    -1.4880     0.2600 ha         1 VS2       0.110500
     66 H231         9.0180    -0.7130     0.0510 ha         1 VS2       0.112500
     67 H241         9.5060     1.6460    -0.5940 ha         1 VS2       0.113000
     68 H251         7.6300     3.2300    -1.0290 ha         1 VS2       0.112500
     69 H261         5.2750     2.4620    -0.8220 ha         1 VS2       0.110500
     70 H281        -0.3000    -0.1370     2.5750 h1         1 VS2       0.097200
     71 H282         0.4010    -1.7310     2.9790 h1         1 VS2       0.097200
     72 H291        -2.3540    -0.6130     4.1730 h1         1 VS2       0.097700
     73 H292        -1.6720    -2.2070     4.5810 h1         1 VS2       0.097700
     74 H311        -3.3820     0.8200     5.9360 ha         1 VS2       0.120000
     75 H321        -4.5150     0.8960     8.1470 ha         1 VS2       0.117500
     76 H331        -4.2570    -0.9950     9.7520 ha         1 VS2       0.115000
     77 H341        -2.8600    -2.9670     9.1370 ha         1 VS2       0.117500
     78 H351        -1.7240    -3.0510     6.9270 ha         1 VS2       0.120000
     79 H271         2.5740    -0.5920     3.6200 hc         1 VS2       0.067200
     80 H272         1.8910     0.9720     3.1850 hc         1 VS2       0.067200
     81 C28          0.4390    -0.6570     3.1950 c3         1 VS2      -0.298400
@<TRIPOS>BOND
     1     1     2 ar  
     2     1     6 ar  
     3     1     7 1   
     4     2     3 ar  
     5     2    43 1   
     6     3     4 ar  
     7     3    44 1   
     8     4     5 ar  
     9     4    45 1   
    10     5     6 ar  
    11     5    46 1   
    12     6    47 1   
    13     7     8 1   
    14     7    48 1   
    15     7    49 1   
    16     8     9 1   
    17     9    10 2   
    18     9    11 1   
    19    11    12 1   
    20    11    50 1   
    21    12    13 1   
    22    12    20 1   
    23    12    51 1   
    24    13    14 1   
    25    13    52 1   
    26    13    53 1   
    27    14    15 ar  
    28    14    19 ar  
    29    15    16 ar  
    30    15    54 1   
    31    16    17 ar  
    32    16    55 1   
    33    17    18 ar  
    34    17    56 1   
    35    18    19 ar  
    36    18    57 1   
    37    19    58 1   
    38    20    21 2   
    39    20    22 1   
    40    22    23 1   
    41    22    59 1   
    42    23    24 1   
    43    23    42 1   
    44    23    60 1   
    45    24    25 1   
    46    24    61 1   
    47    24    62 1   
    48    25    26 1   
    49    25    63 1   
    50    25    64 1   
    51    26    27 ar  
    52    26    31 ar  
    53    27    28 ar  
    54    27    65 1   
    55    28    29 ar  
    56    28    66 1   
    57    29    30 ar  
    58    29    67 1   
    59    30    31 ar  
    60    30    68 1   
    61    31    69 1   
    62    32    33 2   
    63    32    34 2   
    64    32    35 1   
    65    32    81 1   
    66    35    36 1   
    67    35    72 1   
    68    35    73 1   
    69    36    37 ar  
    70    36    41 ar  
    71    37    38 ar  
    72    37    74 1   
    73    38    39 ar  
    74    38    75 1   
    75    39    40 ar  
    76    39    76 1   
    77    40    41 ar  
    78    40    77 1   
    79    41    78 1   
    80    42    79 1   
    81    42    80 1   
    82    42    81 1   
    83    70    81 1   
    84    71    81 1   
@<TRIPOS>SUBSTRUCTURE
     1 VS2         1 TEMP              0 ****  ****    0 ROOT
