@<TRIPOS>MOLECULE
VS3
   81    84     1     0     0
SMALL
No Charge or Current Charge


@<TRIPOS>ATOM
      1 C1           6.5400    -1.8030     2.0090 ca         1 VS3      -0.100300
      2 C2           6.5220    -3.2020     2.1780 ca         1 VS3      -0.086000
      3 C3           6.9770    -3.7770     3.3780 ca         1 VS3      -0.114500
      4 C4           7.4510    -2.9570     4.4160 ca         1 VS3      -0.098000
      5 C5           7.4680    -1.5610     4.2540 ca         1 VS3      -0.114500
      6 C6           7.0130    -0.9860     3.0550 ca         1 VS3      -0.086000
      7 C7           6.0470    -1.1820     0.7090 c3         1 VS3       0.230900
      8 O1           4.6280    -0.9860     0.8100 os         1 VS3      -0.455100
      9 C8           3.9910    -0.4610    -0.2710 c          1 VS3       0.644100
     10 O2           4.5230    -0.1010    -1.3090 o          1 VS3      -0.538000
     11 N1           2.6590    -0.3620     0.0110 ns         1 VS3      -0.482900
     12 C9           1.6190     0.1040    -0.9340 c3         1 VS3       0.042700
     13 C10          0.9760    -1.0890    -1.6920 c3         1 VS3      -0.052100
     14 C11          1.9880    -1.9560    -2.4330 ca         1 VS3      -0.092300
     15 C12          2.4520    -3.1580    -1.8620 ca         1 VS3      -0.097000
     16 C13          3.3940    -3.9500    -2.5410 ca         1 VS3      -0.105500
     17 C14          3.8750    -3.5460    -3.7980 ca         1 VS3      -0.101000
     18 C15          3.4150    -2.3500    -4.3740 ca         1 VS3      -0.105500
     19 C16          2.4740    -1.5570    -3.6930 ca         1 VS3      -0.097000
     20 C17          0.5400     0.9390    -0.1890 c          1 VS3       0.596100
     21 O3           0.4400     0.9650     1.0320 o          1 VS3      -0.604100
     22 N2          -0.3080     1.6560    -1.0090 ns         1 VS3      -0.503900
     23 C18         -1.4390     2.4680    -0.5480 c3         1 VS3       0.114700
     24 C19         -1.1790     3.9730    -0.7960 c3         1 VS3      -0.090400
     25 C20          0.0690     4.5270    -0.0710 c3         1 VS3      -0.028100
     26 C21          0.2350     6.0250    -0.2880 ca         1 VS3      -0.085300
     27 C22         -0.3110     6.9420     0.6310 ca         1 VS3      -0.106500
     28 C23         -0.1620     8.3250     0.4270 ca         1 VS3      -0.108000
     29 C24          0.5350     8.7980    -0.6980 ca         1 VS3      -0.108000
     30 C25          1.0800     7.8880    -1.6190 ca         1 VS3      -0.108000
     31 C26          0.9310     6.5050    -1.4150 ca         1 VS3      -0.106500
     32 S1          -4.6100    -0.1000    -1.6410 s6         1 VS3       1.310700
     33 O4          -5.6920     0.4370    -0.8060 o          1 VS3      -0.511500
     34 O5          -4.6150     0.0950    -3.0960 o          1 VS3      -0.511500
     35 O29         -4.3990    -1.7040    -1.3190 os         1 VS3      -0.439800
     36 C30         -4.5780    -2.1590    -0.0390 ca         1 VS3       0.154100
     37 C31         -5.8690    -2.3590     0.4740 ca         1 VS3      -0.127500
     38 C32         -6.0430    -2.8510     1.7800 ca         1 VS3      -0.029000
     39 C33         -4.9160    -3.1600     2.5810 ca         1 VS3      -0.180200
     40 N3          -5.0960    -3.6840     3.9740 no         1 VS3       0.695200
     41 O8          -4.0830    -3.9430     4.6370 o          1 VS3      -0.392000
     42 O9          -6.2490    -3.8320     4.4000 o          1 VS3      -0.392000
     43 C34         -3.6190    -2.9750     2.0460 ca         1 VS3      -0.029000
     44 C35         -3.4560    -2.4830     0.7390 ca         1 VS3      -0.127500
     45 C27         -2.7520     1.9800    -1.2040 c3         1 VS3      -0.068400
     46 H21          6.1540    -3.8440     1.3800 ha         1 VS3       0.114000
     47 H31          6.9620    -4.8580     3.5030 ha         1 VS3       0.114500
     48 H41          7.8030    -3.4020     5.3450 ha         1 VS3       0.114000
     49 H51          7.8330    -0.9260     5.0580 ha         1 VS3       0.114500
     50 H61          7.0280     0.0960     2.9390 ha         1 VS3       0.114000
     51 H71          6.2890    -1.8490    -0.1290 h1         1 VS3       0.057700
     52 H72          6.5610    -0.2260     0.5380 h1         1 VS3       0.057700
     53 HN11         2.3800    -0.6530     0.9390 hn         1 VS3       0.339500
     54 H91          2.0860     0.7760    -1.6670 h1         1 VS3       0.094700
     55 H101         0.4130    -1.7000    -0.9750 hc         1 VS3       0.054200
     56 H102         0.2340    -0.7080    -2.4050 hc         1 VS3       0.054200
     57 H121         2.0880    -3.4760    -0.8870 ha         1 VS3       0.109500
     58 H131         3.7500    -4.8750    -2.0940 ha         1 VS3       0.114000
     59 H141         4.6040    -4.1590    -4.3240 ha         1 VS3       0.114000
     60 H151         3.7880    -2.0360    -5.3460 ha         1 VS3       0.114000
     61 H161         2.1270    -0.6300    -4.1440 ha         1 VS3       0.109500
     62 HN21        -0.1480     1.5850    -2.0070 hn         1 VS3       0.317500
     63 H181        -1.5540     2.3300     0.5360 h1         1 VS3       0.086700
     64 H191        -1.0770     4.1520    -1.8740 hc         1 VS3       0.052200
     65 H192        -2.0560     4.5420    -0.4640 hc         1 VS3       0.052200
     66 H201        -0.0100     4.3070     1.0010 hc         1 VS3       0.054200
     67 H202         0.9640     4.0000    -0.4240 hc         1 VS3       0.054200
     68 H221        -0.8540     6.5840     1.5030 ha         1 VS3       0.110000
     69 H231        -0.5860     9.0280     1.1400 ha         1 VS3       0.113000
     70 H241         0.6510     9.8690    -0.8560 ha         1 VS3       0.114000
     71 H251         1.6190     8.2540    -2.4910 ha         1 VS3       0.113000
     72 H261         1.3540     5.8070    -2.1340 ha         1 VS3       0.110000
     73 H281        -3.0500     0.2370     0.0940 h1         1 VS3       0.109200
     74 H282        -2.2650    -0.1500    -1.4670 h1         1 VS3       0.109200
     75 H311        -6.7400    -2.1350    -0.1380 ha         1 VS3       0.147500
     76 H321        -7.0540    -2.9920     2.1600 ha         1 VS3       0.160500
     77 H341        -2.7320    -3.2120     2.6330 ha         1 VS3       0.160500
     78 H351        -2.4570    -2.3530     0.3290 ha         1 VS3       0.147500
     79 H271        -2.7160     2.1870    -2.2820 hc         1 VS3       0.064700
     80 H272        -3.5860     2.5670    -0.7970 hc         1 VS3       0.064700
     81 C28         -3.0270     0.4660    -0.9770 c3         1 VS3      -0.337400
@<TRIPOS>BOND
     1     1     2 ar  
     2     1     6 ar  
     3     1     7 1   
     4     2     3 ar  
     5     2    46 1   
     6     3     4 ar  
     7     3    47 1   
     8     4     5 ar  
     9     4    48 1   
    10     5     6 ar  
    11     5    49 1   
    12     6    50 1   
    13     7     8 1   
    14     7    51 1   
    15     7    52 1   
    16     8     9 1   
    17     9    10 2   
    18     9    11 1   
    19    11    12 1   
    20    11    53 1   
    21    12    13 1   
    22    12    20 1   
    23    12    54 1   
    24    13    14 1   
    25    13    55 1   
    26    13    56 1   
    27    14    15 ar  
    28    14    19 ar  
    29    15    16 ar  
    30    15    57 1   
    31    16    17 ar  
    32    16    58 1   
    33    17    18 ar  
    34    17    59 1   
    35    18    19 ar  
    36    18    60 1   
    37    19    61 1   
    38    20    21 2   
    39    20    22 1   
    40    22    23 1   
    41    22    62 1   
    42    23    24 1   
    43    23    45 1   
    44    23    63 1   
    45    24    25 1   
    46    24    64 1   
    47    24    65 1   
    48    25    26 1   
    49    25    66 1   
    50    25    67 1   
    51    26    27 ar  
    52    26    31 ar  
    53    27    28 ar  
    54    27    68 1   
    55    28    29 ar  
    56    28    69 1   
    57    29    30 ar  
    58    29    70 1   
    59    30    31 ar  
    60    30    71 1   
    61    31    72 1   
    62    32    33 2   
    63    32    34 2   
    64    32    35 1   
    65    32    81 1   
    66    35    36 1   
    67    36    37 ar  
    68    36    44 ar  
    69    37    38 ar  
    70    37    75 1   
    71    38    39 ar  
    72    38    76 1   
    73    39    40 1   
    74    39    43 ar  
    75    40    41 1   
    76    40    42 1   
    77    43    44 ar  
    78    43    77 1   
    79    44    78 1   
    80    45    79 1   
    81    45    80 1   
    82    45    81 1   
    83    73    81 1   
    84    74    81 1   
@<TRIPOS>SUBSTRUCTURE
     1 VS3         1 TEMP              0 ****  ****    0 ROOT
