@<TRIPOS>MOLECULE
VS3
   81    84     1     0     0
SMALL
abcg2


@<TRIPOS>ATOM
      1 C1           6.3760    -2.0020     1.8190 ca         1 VS3      -0.100300
      2 C2           6.0360    -3.3510     1.7350 ca         1 VS3      -0.086000
      3 C3           6.4420    -4.2420     2.7170 ca         1 VS3      -0.114500
      4 C4           7.1950    -3.7920     3.7960 ca         1 VS3      -0.098000
      5 C5           7.5380    -2.4510     3.8860 ca         1 VS3      -0.114500
      6 C6           7.1260    -1.5610     2.9020 ca         1 VS3      -0.086000
      7 C7           5.9210    -1.0460     0.7590 c3         1 VS3       0.230900
      8 O1           4.5100    -0.8800     0.9240 os         1 VS3      -0.455100
      9 C8           3.8590    -0.2300    -0.0450 c          1 VS3       0.644100
     10 O2           4.3990     0.2880    -0.9980 o          1 VS3      -0.538000
     11 N1           2.5330    -0.2100     0.2110 ns         1 VS3      -0.482900
     12 C9           1.5710     0.1630    -0.7890 c3         1 VS3       0.042700
     13 C10          1.0120    -1.0720    -1.5330 c3         1 VS3      -0.052100
     14 C11          2.1160    -1.8840    -2.1430 ca         1 VS3      -0.092300
     15 C12          2.7230    -2.9120    -1.4250 ca         1 VS3      -0.097000
     16 C13          3.8010    -3.6080    -1.9560 ca         1 VS3      -0.105500
     17 C14          4.2820    -3.2890    -3.2180 ca         1 VS3      -0.101000
     18 C15          3.6750    -2.2750    -3.9480 ca         1 VS3      -0.105500
     19 C16          2.6030    -1.5770    -3.4110 ca         1 VS3      -0.097000
     20 C17          0.4120     0.8950    -0.1250 c          1 VS3       0.596100
     21 O3           0.0430     0.6020     1.0010 o          1 VS3      -0.604100
     22 N2          -0.1890     1.8090    -0.9030 ns         1 VS3      -0.503900
     23 C18         -1.3770     2.5520    -0.5300 c3         1 VS3       0.114700
     24 C19         -1.2150     4.0300    -0.8720 c3         1 VS3      -0.090400
     25 C20         -0.0400     4.6930    -0.1530 c3         1 VS3      -0.028100
     26 C21          0.0410     6.1590    -0.4730 ca         1 VS3      -0.085300
     27 C22         -0.6060     7.1030     0.3220 ca         1 VS3      -0.106500
     28 C23         -0.5670     8.4540     0.0010 ca         1 VS3      -0.108000
     29 C24          0.1200     8.8830    -1.1270 ca         1 VS3      -0.108000
     30 C25          0.7690     7.9520    -1.9280 ca         1 VS3      -0.108000
     31 C26          0.7290     6.6030    -1.6010 ca         1 VS3      -0.106500
     32 S1          -4.3090    -0.1380    -1.5620 s6         1 VS3       1.310700
     33 O4          -5.4370     0.4280    -0.8570 o          1 VS3      -0.511500
     34 O5          -4.2670    -0.1270    -3.0040 o          1 VS3      -0.511500
     35 O29         -4.1970    -1.7320    -1.1960 os         1 VS3      -0.439800
     36 C30         -4.4040    -2.1530     0.0980 ca         1 VS3       0.154100
     37 C31         -5.6950    -2.3120     0.5780 ca         1 VS3      -0.127500
     38 C32         -5.8820    -2.7850     1.8640 ca         1 VS3      -0.029000
     39 C33         -4.7730    -3.0850     2.6430 ca         1 VS3      -0.180200
     40 N3          -4.9710    -3.5800     3.9970 no         1 VS3       0.695200
     41 O8          -3.9910    -3.8190     4.6610 o          1 VS3      -0.392000
     42 O9          -6.1050    -3.7250     4.3870 o          1 VS3      -0.392000
     43 C34         -3.4810    -2.9310     2.1640 ca         1 VS3      -0.029000
     44 C35         -3.2980    -2.4600     0.8770 ca         1 VS3      -0.127500
     45 C27         -2.6270     1.9790    -1.2050 c3         1 VS3      -0.068400
     46 H21          5.4570    -3.7100     0.8910 ha         1 VS3       0.114000
     47 H31          6.1730    -5.2880     2.6410 ha         1 VS3       0.114500
     48 H41          7.5150    -4.4880     4.5610 ha         1 VS3       0.114000
     49 H51          8.1240    -2.0950     4.7240 ha         1 VS3       0.114500
     50 H61          7.3950    -0.5140     2.9770 ha         1 VS3       0.114000
     51 H71          6.1350    -1.4410    -0.2370 h1         1 VS3       0.057700
     52 H72          6.4310    -0.0850     0.8580 h1         1 VS3       0.057700
     53 HN11         2.1920    -0.7280     1.0060 hn         1 VS3       0.339500
     54 H91          2.0660     0.8160    -1.5090 h1         1 VS3       0.094700
     55 H101         0.4390    -1.6800    -0.8280 hc         1 VS3       0.054200
     56 H102         0.3160    -0.7350    -2.3050 hc         1 VS3       0.054200
     57 H121         2.3480    -3.1730    -0.4430 ha         1 VS3       0.109500
     58 H131         4.2610    -4.4040    -1.3840 ha         1 VS3       0.114000
     59 H141         5.1210    -3.8330    -3.6350 ha         1 VS3       0.114000
     60 H151         4.0380    -2.0260    -4.9370 ha         1 VS3       0.114000
     61 H161         2.1410    -0.7820    -3.9840 ha         1 VS3       0.109500
     62 HN21         0.1970     1.9900    -1.8190 hn         1 VS3       0.317500
     63 H181        -1.4910     2.4540     0.5510 h1         1 VS3       0.086700
     64 H191        -1.1020     4.1480    -1.9540 hc         1 VS3       0.052200
     65 H192        -2.1420     4.5420    -0.6010 hc         1 VS3       0.052200
     66 H201        -0.1510     4.5530     0.9260 hc         1 VS3       0.054200
     67 H202         0.8920     4.2020    -0.4410 hc         1 VS3       0.054200
     68 H221        -1.1410     6.7780     1.2080 ha         1 VS3       0.110000
     69 H231        -1.0720     9.1710     0.6350 ha         1 VS3       0.113000
     70 H241         0.1530     9.9350    -1.3790 ha         1 VS3       0.114000
     71 H251         1.3100     8.2760    -2.8070 ha         1 VS3       0.113000
     72 H261         1.2440     5.8840    -2.2290 ha         1 VS3       0.110000
     73 H281        -2.8170     0.3230     0.1900 h1         1 VS3       0.109200
     74 H282        -1.9900    -0.0960    -1.3320 h1         1 VS3       0.109200
     75 H311        -6.5500    -2.0890    -0.0450 ha         1 VS3       0.147500
     76 H321        -6.8850    -2.9160     2.2420 ha         1 VS3       0.160500
     77 H341        -2.6210    -3.1700     2.7710 ha         1 VS3       0.160500
     78 H351        -2.2970    -2.3460     0.4800 ha         1 VS3       0.147500
     79 H271        -2.5620     2.1230    -2.2850 hc         1 VS3       0.064700
     80 H272        -3.4940     2.5380    -0.8470 hc         1 VS3       0.064700
     81 C28         -2.7880     0.4980    -0.8870 c3         1 VS3      -0.337400
@<TRIPOS>BOND
     1     1     2 ar  
     2     1     6 ar  
     3     1     7 1   
     4     2     3 ar  
     5     2    46 1   
     6     3     4 ar  
     7     3    47 1   
     8     4     5 ar  
     9     4    48 1   
    10     5     6 ar  
    11     5    49 1   
    12     6    50 1   
    13     7     8 1   
    14     7    51 1   
    15     7    52 1   
    16     8     9 1   
    17     9    10 2   
    18     9    11 1   
    19    11    12 1   
    20    11    53 1   
    21    12    13 1   
    22    12    20 1   
    23    12    54 1   
    24    13    14 1   
    25    13    55 1   
    26    13    56 1   
    27    14    15 ar  
    28    14    19 ar  
    29    15    16 ar  
    30    15    57 1   
    31    16    17 ar  
    32    16    58 1   
    33    17    18 ar  
    34    17    59 1   
    35    18    19 ar  
    36    18    60 1   
    37    19    61 1   
    38    20    21 2   
    39    20    22 1   
    40    22    23 1   
    41    22    62 1   
    42    23    24 1   
    43    23    45 1   
    44    23    63 1   
    45    24    25 1   
    46    24    64 1   
    47    24    65 1   
    48    25    26 1   
    49    25    66 1   
    50    25    67 1   
    51    26    27 ar  
    52    26    31 ar  
    53    27    28 ar  
    54    27    68 1   
    55    28    29 ar  
    56    28    69 1   
    57    29    30 ar  
    58    29    70 1   
    59    30    31 ar  
    60    30    71 1   
    61    31    72 1   
    62    32    33 2   
    63    32    34 2   
    64    32    35 1   
    65    32    81 1   
    66    35    36 1   
    67    36    37 ar  
    68    36    44 ar  
    69    37    38 ar  
    70    37    75 1   
    71    38    39 ar  
    72    38    76 1   
    73    39    40 1   
    74    39    43 ar  
    75    40    41 1   
    76    40    42 1   
    77    43    44 ar  
    78    43    77 1   
    79    44    78 1   
    80    45    79 1   
    81    45    80 1   
    82    45    81 1   
    83    73    81 1   
    84    74    81 1   
@<TRIPOS>SUBSTRUCTURE
     1 VS3         1 TEMP              0 ****  ****    0 ROOT
