@<TRIPOS>MOLECULE
VS5
   49    53     1     0     0
SMALL
abcg2


@<TRIPOS>ATOM
      1 C01          2.5990     5.2140    19.4280 cp         1 VS5      -0.092000
      2 C02          2.5520     3.8940    19.8800 ca         1 VS5      -0.070500
      3 C04          0.2520     3.7660    19.2800 ca         1 VS5       0.178000
      4 C05          0.2570     5.0720    18.8240 ca         1 VS5      -0.147000
      5 C06          1.4430     5.7930    18.9010 ca         1 VS5      -0.070500
      6 C10          4.3490     6.3970    20.7650 ca         1 VS5      -0.202300
      7 C11          5.7300     7.1550    18.4880 ca         1 VS5       0.650900
      8 C15          3.6380     6.0420    22.0510 c6         1 VS5       0.212900
      9 C17          5.4150     6.9690    23.2780 c6         1 VS5       0.150600
     10 C18          6.0240     7.7110    22.1000 c6         1 VS5      -0.167700
     11 C19          3.9580     6.1030    17.0430 cc         1 VS5       0.476000
     12 C24          6.9100     6.5310    16.4200 c6         1 VS5       0.213800
     13 C25          7.1490     7.1460    15.0490 c6         1 VS5      -0.083900
     14 C26          8.1530     8.2940    15.1450 c6         1 VS5      -0.073400
     15 C27          7.7130     9.2970    16.2090 c6         1 VS5      -0.083900
     16 C28          7.4450     8.6190    17.5500 c6         1 VS5       0.213800
     17 C03          1.3770     3.1570    19.8050 ca         1 VS5      -0.147000
     18 F07         -0.9020     3.0570    19.2120 f          1 VS5      -0.176000
     19 C08          3.8620     5.9960    19.5150 cp         1 VS5       0.064000
     20 C09          4.5380     6.3920    18.3580 ca         1 VS5      -0.239500
     21 N12          6.4630     7.5470    17.3820 nh         1 VS5      -0.759300
     22 N13          6.1580     7.5450    19.6890 nb         1 VS5      -0.746000
     23 C14          5.4890     7.1950    20.7910 ca         1 VS5       0.425300
     24 O16          3.9980     6.8930    23.1280 os         1 VS5      -0.446000
     25 N20          3.5580     6.9820    16.1360 nd         1 VS5      -0.370000
     26 N21          3.0600     6.2660    15.1020 nd         1 VS5      -0.051000
     27 N22          3.1380     5.0000    15.3370 nc         1 VS5      -0.202800
     28 N23          3.6970     4.8810    16.5460 na         1 VS5      -0.222700
     29 H29          3.4430     3.4340    20.2860 ha         1 VS5       0.129000
     30 H31         -0.6450     5.5120    18.4220 ha         1 VS5       0.140000
     31 H32          1.4660     6.8160    18.5500 ha         1 VS5       0.129000
     32 H34          2.5590     6.1390    21.9290 h1         1 VS5       0.057200
     33 H33          3.8480     4.9980    22.3240 h1         1 VS5       0.057200
     34 H35          5.6050     7.4890    24.2160 h1         1 VS5       0.052700
     35 H36          5.8300     5.9550    23.3530 h1         1 VS5       0.052700
     36 H37          7.1120     7.6190    22.1070 hc         1 VS5       0.076200
     37 H38          5.7930     8.7790    22.1750 hc         1 VS5       0.076200
     38 H41          7.8460     6.0850    16.7910 h1         1 VS5       0.041950
     39 H40          6.1840     5.7270    16.3570 h1         1 VS5       0.041950
     40 H43          7.5110     6.3710    14.3700 hc         1 VS5       0.055450
     41 H42          6.1970     7.5120    14.6540 hc         1 VS5       0.055450
     42 H44          9.1360     7.8890    15.4140 hc         1 VS5       0.041200
     43 H45          8.2660     8.7870    14.1770 hc         1 VS5       0.041200
     44 H47          8.4740    10.0680    16.3520 hc         1 VS5       0.055450
     45 H46          6.7980     9.8010    15.8820 hc         1 VS5       0.055450
     46 H49          7.0540     9.3360    18.2680 h1         1 VS5       0.041950
     47 H48          8.3830     8.2210    17.9640 h1         1 VS5       0.041950
     48 H30          1.3310     2.1310    20.1460 ha         1 VS5       0.140000
     49 H39          3.8710     3.9720    16.9530 hn         1 VS5       0.386000
@<TRIPOS>BOND
     1     1     2 ar  
     2     1     5 ar  
     3     1    19 1   
     4     2    17 ar  
     5     2    29 1   
     6     3     4 ar  
     7     3    17 ar  
     8     3    18 1   
     9     4     5 ar  
    10     4    30 1   
    11     5    31 1   
    12     6     8 1   
    13     6    19 ar  
    14     6    23 ar  
    15     7    20 ar  
    16     7    21 1   
    17     7    22 ar  
    18     8    24 1   
    19     8    32 1   
    20     8    33 1   
    21     9    10 1   
    22     9    24 1   
    23     9    34 1   
    24     9    35 1   
    25    10    23 1   
    26    10    36 1   
    27    10    37 1   
    28    11    20 1   
    29    11    25 2   
    30    11    28 1   
    31    12    13 1   
    32    12    21 1   
    33    12    38 1   
    34    12    39 1   
    35    13    14 1   
    36    13    40 1   
    37    13    41 1   
    38    14    15 1   
    39    14    42 1   
    40    14    43 1   
    41    15    16 1   
    42    15    44 1   
    43    15    45 1   
    44    16    21 1   
    45    16    46 1   
    46    16    47 1   
    47    17    48 1   
    48    19    20 ar  
    49    22    23 ar  
    50    25    26 1   
    51    26    27 2   
    52    27    28 1   
    53    28    49 1   
@<TRIPOS>SUBSTRUCTURE
     1 VS5         1 TEMP              0 ****  ****    0 ROOT
