@<TRIPOS>MOLECULE
VS5
   49    53     1     0     0
SMALL
No Charge or Current Charge


@<TRIPOS>ATOM
      1 C01          2.5120     5.2530    19.4320 cp         1 VS5      -0.092000
      2 C02          2.4250     3.9130    19.8810 ca         1 VS5      -0.070500
      3 C04          0.0740     3.8300    19.2690 ca         1 VS5       0.178000
      4 C05          0.1380     5.1570    18.8190 ca         1 VS5      -0.147000
      5 C06          1.3500     5.8650    18.9010 ca         1 VS5      -0.070500
      6 C10          4.3550     6.3460    20.7650 ca         1 VS5      -0.202300
      7 C11          5.6730     7.1590    18.4930 ca         1 VS5       0.650900
      8 C15          3.6870     5.9540    22.0900 c6         1 VS5       0.212900
      9 C17          5.5960     6.7950    23.3070 c6         1 VS5       0.150600
     10 C18          6.2130     7.5050    22.0940 c6         1 VS5      -0.167700
     11 C19          3.9720     6.1620    16.9990 cc         1 VS5       0.476000
     12 C24          7.2430     6.5130    16.6780 c6         1 VS5       0.213800
     13 C25          7.5070     6.9470    15.2150 c6         1 VS5      -0.083900
     14 C26          8.2010     8.3280    15.1580 c6         1 VS5      -0.073400
     15 C27          7.3820     9.3700    15.9570 c6         1 VS5      -0.083900
     16 C28          7.1230     8.8900    17.4060 c6         1 VS5       0.213800
     17 C03          1.2130     3.2050    19.8000 ca         1 VS5      -0.147000
     18 F07         -1.0900     3.1490    19.1910 f          1 VS5      -0.176000
     19 C08          3.7980     6.0040    19.5100 cp         1 VS5       0.064000
     20 C09          4.4830     6.4240    18.3400 ca         1 VS5      -0.239500
     21 N12          6.4730     7.5510    17.4110 nh         1 VS5      -0.759300
     22 N13          6.2010     7.4750    19.6830 nb         1 VS5      -0.746000
     23 C14          5.5550     7.0780    20.7910 ca         1 VS5       0.425300
     24 O16          4.1670     6.7840    23.1680 os         1 VS5      -0.446000
     25 N20          3.8320     7.0160    16.0040 nd         1 VS5      -0.370000
     26 N21          3.2690     6.3170    14.9620 nd         1 VS5      -0.051000
     27 N22          3.0340     5.0740    15.2830 nc         1 VS5      -0.202800
     28 N23          3.4670     4.9720    16.5640 na         1 VS5      -0.222700
     29 H29          3.3070     3.4210    20.2880 ha         1 VS5       0.129000
     30 H31         -0.7490     5.6330    18.4100 ha         1 VS5       0.140000
     31 H32          1.3930     6.8950    18.5520 ha         1 VS5       0.129000
     32 H34          2.5960     6.0710    22.0160 h1         1 VS5       0.057200
     33 H33          3.9040     4.9010    22.3190 h1         1 VS5       0.057200
     34 H35          5.8700     7.3180    24.2350 h1         1 VS5       0.052700
     35 H36          5.9620     5.7590    23.3750 h1         1 VS5       0.052700
     36 H37          7.2920     7.3050    22.0610 hc         1 VS5       0.076200
     37 H38          6.0980     8.5900    22.2130 hc         1 VS5       0.076200
     38 H41          8.2050     6.3360    17.1840 h1         1 VS5       0.041950
     39 H40          6.6980     5.5570    16.6720 h1         1 VS5       0.041950
     40 H43          8.1250     6.1930    14.7100 hc         1 VS5       0.055450
     41 H42          6.5550     6.9880    14.6690 hc         1 VS5       0.055450
     42 H44          9.2150     8.2530    15.5760 hc         1 VS5       0.041200
     43 H45          8.3120     8.6530    14.1140 hc         1 VS5       0.041200
     44 H47          7.9100    10.3330    15.9740 hc         1 VS5       0.055450
     45 H46          6.4210     9.5470    15.4560 hc         1 VS5       0.055450
     46 H49          6.4830     9.6280    17.9120 h1         1 VS5       0.041950
     47 H48          8.0780     8.8480    17.9530 h1         1 VS5       0.041950
     48 H30          1.1550     2.1760    20.1450 ha         1 VS5       0.140000
     49 H39          3.4000     4.1140    17.0960 hn         1 VS5       0.386000
@<TRIPOS>BOND
     1     1     2 ar  
     2     1     5 ar  
     3     1    19 1   
     4     2    17 ar  
     5     2    29 1   
     6     3     4 ar  
     7     3    17 ar  
     8     3    18 1   
     9     4     5 ar  
    10     4    30 1   
    11     5    31 1   
    12     6     8 1   
    13     6    19 ar  
    14     6    23 ar  
    15     7    20 ar  
    16     7    21 1   
    17     7    22 ar  
    18     8    24 1   
    19     8    32 1   
    20     8    33 1   
    21     9    10 1   
    22     9    24 1   
    23     9    34 1   
    24     9    35 1   
    25    10    23 1   
    26    10    36 1   
    27    10    37 1   
    28    11    20 1   
    29    11    25 2   
    30    11    28 1   
    31    12    13 1   
    32    12    21 1   
    33    12    38 1   
    34    12    39 1   
    35    13    14 1   
    36    13    40 1   
    37    13    41 1   
    38    14    15 1   
    39    14    42 1   
    40    14    43 1   
    41    15    16 1   
    42    15    44 1   
    43    15    45 1   
    44    16    21 1   
    45    16    46 1   
    46    16    47 1   
    47    17    48 1   
    48    19    20 ar  
    49    22    23 ar  
    50    25    26 1   
    51    26    27 2   
    52    27    28 1   
    53    28    49 1   
@<TRIPOS>SUBSTRUCTURE
     1 VS5         1 TEMP              0 ****  ****    0 ROOT
