@<TRIPOS>MOLECULE
VS7
   27    28     1     0     0
SMALL
No Charge or Current Charge


@<TRIPOS>ATOM
      1 N1          -4.3570    16.9580   -32.3800 n8         1 VS7      -0.985200
      2 C7          -1.3370    14.3510   -34.8600 ca         1 VS7      -0.063000
      3 C8          -0.3010    13.3920   -34.8510 ca         1 VS7      -0.144000
      4 C9          -0.5700    12.0470   -34.4940 ca         1 VS7      -0.094000
      5 C1          -3.5540    17.0450   -33.6160 c3         1 VS7       0.153500
      6 C5          -2.8850    12.6240   -34.1620 ca         1 VS7      -0.042200
      7 C6          -2.6230    13.9200   -34.5050 ca         1 VS7      -0.090800
      8 C4          -4.8790    13.7400   -34.0190 cc         1 VS7      -0.146100
      9 C3          -3.8820    14.6260   -34.4130 cd         1 VS7      -0.121400
     10 C2          -4.0830    16.0920   -34.7230 c3         1 VS7       0.009800
     11 C           -3.5140    18.5130   -34.0840 c3         1 VS7      -0.130100
     12 C10         -1.8790    11.6500   -34.1430 ca         1 VS7      -0.130000
     13 N           -4.2300    12.4950   -33.8660 na         1 VS7      -0.236700
     14 H1          -4.0250    17.6670   -31.7170 hn         1 VS7       0.386500
     15 H2          -5.3170    17.2530   -32.5880 hn         1 VS7       0.386500
     16 H5           0.7110    13.6880   -35.1210 ha         1 VS7       0.108000
     17 H6           0.2360    11.3160   -34.4910 ha         1 VS7       0.108000
     18 H7          -2.5230    16.7460   -33.3740 h1         1 VS7       0.065700
     19 H8          -5.9410    13.8880   -33.8450 h4         1 VS7       0.210000
     20 H9          -3.5680    16.3240   -35.6630 hc         1 VS7       0.040200
     21 H10         -5.1450    16.2980   -34.9050 hc         1 VS7       0.040200
     22 H11         -3.1150    19.1640   -33.2970 hc         1 VS7       0.035700
     23 H12         -2.8680    18.6170   -34.9630 hc         1 VS7       0.035700
     24 H13         -4.5160    18.8690   -34.3540 hc         1 VS7       0.035700
     25 H14         -2.0970    10.6200   -33.8690 ha         1 VS7       0.110000
     26 H15         -4.6800    11.6300   -33.5820 hn         1 VS7       0.348000
     27 H4          -1.1430    15.3850   -35.1330 ha         1 VS7       0.110000
@<TRIPOS>BOND
     1     1     5 1   
     2     1    14 1   
     3     1    15 1   
     4     2     3 ar  
     5     2     7 ar  
     6     2    27 1   
     7     3     4 ar  
     8     3    16 1   
     9     4    12 ar  
    10     4    17 1   
    11     5    10 1   
    12     5    11 1   
    13     5    18 1   
    14     6     7 ar  
    15     6    12 ar  
    16     6    13 1   
    17     7     9 1   
    18     8     9 2   
    19     8    13 1   
    20     8    19 1   
    21     9    10 1   
    22    10    20 1   
    23    10    21 1   
    24    11    22 1   
    25    11    23 1   
    26    11    24 1   
    27    12    25 1   
    28    13    26 1   
@<TRIPOS>SUBSTRUCTURE
     1 VS7         1 TEMP              0 ****  ****    0 ROOT
