@<TRIPOS>MOLECULE
VS7
   27    28     1     0     0
SMALL
abcg2


@<TRIPOS>ATOM
      1 N1          -4.1750    16.8460   -32.3720 n8         1 VS7      -0.985200
      2 C7          -1.3210    14.3450   -34.8120 ca         1 VS7      -0.063000
      3 C8          -0.3200    13.3880   -34.7670 ca         1 VS7      -0.144000
      4 C9          -0.6060    12.0530   -34.4230 ca         1 VS7      -0.094000
      5 C1          -3.5130    17.0770   -33.6650 c3         1 VS7       0.153500
      6 C5          -2.9030    12.6170   -34.1610 ca         1 VS7      -0.042200
      7 C6          -2.6370    13.9710   -34.5060 ca         1 VS7      -0.090800
      8 C4          -4.8360    13.7540   -34.0970 cc         1 VS7      -0.146100
      9 C3          -3.8900    14.6780   -34.4580 cd         1 VS7      -0.121400
     10 C2          -4.1010    16.1320   -34.7270 c3         1 VS7       0.009800
     11 C           -3.5970    18.5290   -34.1360 c3         1 VS7      -0.130100
     12 C10         -1.8970    11.6510   -34.1170 ca         1 VS7      -0.130000
     13 N           -4.2500    12.5170   -33.9170 na         1 VS7      -0.236700
     14 H1          -3.7860    17.4750   -31.6760 hn         1 VS7       0.386500
     15 H2          -5.1590    17.0940   -32.4520 hn         1 VS7       0.386500
     16 H5           0.7000    13.6660   -35.0010 ha         1 VS7       0.108000
     17 H6           0.1980    11.3280   -34.3960 ha         1 VS7       0.108000
     18 H7          -2.4590    16.8190   -33.5260 h1         1 VS7       0.065700
     19 H8          -5.8970    13.8820   -33.9510 h4         1 VS7       0.210000
     20 H9          -3.6550    16.3960   -35.6910 hc         1 VS7       0.040200
     21 H10         -5.1740    16.3380   -34.8130 hc         1 VS7       0.040200
     22 H11         -3.1760    19.2020   -33.3860 hc         1 VS7       0.035700
     23 H12         -3.0480    18.6760   -35.0710 hc         1 VS7       0.035700
     24 H13         -4.6390    18.8150   -34.3040 hc         1 VS7       0.035700
     25 H14         -2.1190    10.6240   -33.8540 ha         1 VS7       0.110000
     26 H15         -4.7380    11.6750   -33.6600 hn         1 VS7       0.348000
     27 H4          -1.0880    15.3690   -35.0790 ha         1 VS7       0.110000
@<TRIPOS>BOND
     1     1     5 1   
     2     1    14 1   
     3     1    15 1   
     4     2     3 ar  
     5     2     7 ar  
     6     2    27 1   
     7     3     4 ar  
     8     3    16 1   
     9     4    12 ar  
    10     4    17 1   
    11     5    10 1   
    12     5    11 1   
    13     5    18 1   
    14     6     7 ar  
    15     6    12 ar  
    16     6    13 1   
    17     7     9 1   
    18     8     9 2   
    19     8    13 1   
    20     8    19 1   
    21     9    10 1   
    22    10    20 1   
    23    10    21 1   
    24    11    22 1   
    25    11    23 1   
    26    11    24 1   
    27    12    25 1   
    28    13    26 1   
@<TRIPOS>SUBSTRUCTURE
     1 VS7         1 TEMP              0 ****  ****    0 ROOT
