@<TRIPOS>MOLECULE
VS8
   54    58     1     0     0
SMALL
abcg2


@<TRIPOS>ATOM
      1 CAK          0.4090     2.0270    -1.2260 ca         1 VS8      -0.106500
      2 CAJ          1.5190     2.1210     0.9000 ca         1 VS8      -0.106500
      3 CAF          1.4440     3.5050     0.8770 ca         1 VS8      -0.114000
      4 CAC          0.8440     4.1570    -0.1940 ca         1 VS8      -0.112000
      5 CAG          0.3250     3.4130    -1.2450 ca         1 VS8      -0.114000
      6 CAN         -5.5970     0.2880     1.2320 c6         1 VS8      -0.070900
      7 CAO         -3.9360     1.6920    -0.7490 c6         1 VS8      -0.091900
      8 CBC         -3.5370     0.3170    -0.2200 c6         1 VS8       0.240500
      9 CAM         -5.4470     1.8940    -0.6940 c6         1 VS8      -0.070900
     10 CAL         -5.9960     1.6640     0.7110 c6         1 VS8      -0.077400
     11 CAP         -4.0850     0.1000     1.1920 c6         1 VS8      -0.091900
     12 C5          -0.0110    -1.0280    -0.2130 ca         1 VS8      -0.292800
     13 C4           0.5200    -2.3180    -0.1380 ca         1 VS8       0.195500
     14 C6          -1.4270    -0.9750    -0.2700 ca         1 VS8       0.470900
     15 N1          -2.1210    -2.1060    -0.3300 nb         1 VS8      -0.355000
     16 CAZ          1.0840    -0.1060    -0.1370 cc         1 VS8      -0.025400
     17 C2          -1.4680    -3.2780    -0.3000 ca         1 VS8       0.422900
     18 NAA         -2.2430    -4.3870    -0.4320 nv         1 VS8      -1.047900
     19 N3          -0.1600    -3.4630    -0.1810 nb         1 VS8      -0.306000
     20 CAY          2.2230    -0.8680    -0.0160 cd         1 VS8      -0.023300
     21 CAW          1.0060     1.3620    -0.1530 ca         1 VS8      -0.025800
     22 CAE          5.4560     0.9900    -0.5000 ca         1 VS8      -0.110000
     23 CAB          6.3250     0.2480     0.2910 ca         1 VS8      -0.106000
     24 CAI          4.1220     0.6270    -0.6060 ca         1 VS8      -0.098500
     25 CAD          5.8470    -0.8610     0.9760 ca         1 VS8      -0.110000
     26 CAH          4.5110    -1.2220     0.8780 ca         1 VS8      -0.098500
     27 CAV          3.6270    -0.4800     0.0880 ca         1 VS8      -0.032800
     28 NAT          1.8600    -2.2010    -0.0050 na         1 VS8      -0.316400
     29 HAO2        -3.5760     1.8130    -1.7750 hc         1 VS8       0.046200
     30 HAM1        -5.6940     2.9000    -1.0410 hc         1 VS8       0.041450
     31 HAM2        -5.9300     1.2010    -1.3910 hc         1 VS8       0.041450
     32 HBC         -3.9630    -0.4460    -0.8780 h1         1 VS8       0.079700
     33 HAL1        -7.0830     1.7730     0.7130 hc         1 VS8       0.040200
     34 HAL2        -5.6040     2.4340     1.3840 hc         1 VS8       0.040200
     35 HAN1        -5.9620     0.1440     2.2520 hc         1 VS8       0.041450
     36 HAN2        -6.0750    -0.4850     0.6220 hc         1 VS8       0.041450
     37 HAP1        -3.6040     0.8140     1.8700 hc         1 VS8       0.046200
     38 HAP2        -3.8160    -0.8990     1.5420 hc         1 VS8       0.046200
     39 HAA1        -3.2260    -4.2840    -0.2470 hn         1 VS8       0.481000
     40 HAA2        -1.8400    -5.2660    -0.1580 hn         1 VS8       0.481000
     41 HAH          4.1550    -2.0770     1.4380 ha         1 VS8       0.118000
     42 HAI          3.4640     1.2000    -1.2460 ha         1 VS8       0.118000
     43 HAD          6.5130    -1.4440     1.5980 ha         1 VS8       0.114000
     44 HAB          7.3670     0.5310     0.3700 ha         1 VS8       0.114000
     45 HAE          5.8200     1.8500    -1.0460 ha         1 VS8       0.114000
     46 HAJ          1.9760     1.6190     1.7430 ha         1 VS8       0.122000
     47 HAK          0.0190     1.4570    -2.0610 ha         1 VS8       0.122000
     48 HAF          1.8480     4.0770     1.7030 ha         1 VS8       0.113500
     49 HAC          0.7810     5.2370    -0.2080 ha         1 VS8       0.112000
     50 HAG         -0.1420     3.9090    -2.0850 ha         1 VS8       0.113500
     51 HAT          2.5030    -2.9770    -0.0100 hn         1 VS8       0.361000
     52 NAS         -2.0940     0.1890    -0.2710 nu         1 VS8      -0.921100
     53 HAO1        -3.4440     2.4670    -0.1480 hc         1 VS8       0.046200
     54 HAS         -1.5580     1.0280    -0.1130 hn         1 VS8       0.501000
@<TRIPOS>BOND
     1     1     5 ar  
     2     1    21 ar  
     3     1    47 1   
     4     2     3 ar  
     5     2    21 ar  
     6     2    46 1   
     7     3     4 ar  
     8     3    48 1   
     9     4     5 ar  
    10     4    49 1   
    11     5    50 1   
    12     6    10 1   
    13     6    11 1   
    14     6    35 1   
    15     6    36 1   
    16     7     8 1   
    17     7     9 1   
    18     7    29 1   
    19     7    53 1   
    20     8    11 1   
    21     8    32 1   
    22     8    52 1   
    23     9    10 1   
    24     9    30 1   
    25     9    31 1   
    26    10    33 1   
    27    10    34 1   
    28    11    37 1   
    29    11    38 1   
    30    12    13 ar  
    31    12    14 ar  
    32    12    16 1   
    33    13    19 ar  
    34    13    28 1   
    35    14    15 ar  
    36    14    52 1   
    37    15    17 ar  
    38    16    20 2   
    39    16    21 1   
    40    17    18 1   
    41    17    19 ar  
    42    18    39 1   
    43    18    40 1   
    44    20    27 1   
    45    20    28 1   
    46    22    23 ar  
    47    22    24 ar  
    48    22    45 1   
    49    23    25 ar  
    50    23    44 1   
    51    24    27 ar  
    52    24    42 1   
    53    25    26 ar  
    54    25    43 1   
    55    26    27 ar  
    56    26    41 1   
    57    28    51 1   
    58    52    54 1   
@<TRIPOS>SUBSTRUCTURE
     1 VS8         1 TEMP              0 ****  ****    0 ROOT
