@<TRIPOS>MOLECULE
VS8
   54    58     1     0     0
SMALL
No Charge or Current Charge


@<TRIPOS>ATOM
      1 CAK          0.4600     1.7450    -1.5600 ca         1 VS8      -0.106500
      2 CAJ          0.6820     1.8370     0.8610 ca         1 VS8      -0.106500
      3 CAF          0.4180     3.2170     0.8330 ca         1 VS8      -0.114000
      4 CAC          0.1750     3.8610    -0.3920 ca         1 VS8      -0.112000
      5 CAG          0.1950     3.1250    -1.5890 ca         1 VS8      -0.114000
      6 CAN         -4.8010     0.8170     1.6680 c6         1 VS8      -0.070900
      7 CAO         -3.8290     1.6390    -1.0330 c6         1 VS8      -0.091900
      8 CBC         -3.4130     0.2790    -0.4150 c6         1 VS8       0.240500
      9 CAM         -5.2120     2.0970    -0.5050 c6         1 VS8      -0.070900
     10 CAL         -5.2240     2.1690     1.0420 c6         1 VS8      -0.077400
     11 CAP         -3.4200     0.3600     1.1350 c6         1 VS8      -0.091900
     12 C5          -0.0790    -1.3540    -0.4340 ca         1 VS8      -0.292800
     13 C4           0.5080    -2.5650    -0.2110 ca         1 VS8       0.195500
     14 C6          -1.4500    -1.2790    -0.6890 ca         1 VS8       0.470900
     15 N1          -2.1950    -2.3970    -0.7260 nb         1 VS8      -0.355000
     16 CAZ          0.9230    -0.3440    -0.3000 cc         1 VS8      -0.025400
     17 C2          -1.5260    -3.5390    -0.5080 ca         1 VS8       0.422900
     18 NAA         -2.2660    -4.6680    -0.5420 nv         1 VS8      -1.047900
     19 N3          -0.2160    -3.6980    -0.2470 nb         1 VS8      -0.306000
     20 CAY          2.1250    -0.9790     0.0220 cd         1 VS8      -0.023300
     21 CAW          0.7090     1.0970    -0.3350 ca         1 VS8      -0.025800
     22 CAE          5.1240     1.4140     0.1680 ca         1 VS8      -0.110000
     23 CAB          6.1160     0.5700     0.6870 ca         1 VS8      -0.106000
     24 CAI          3.8240     0.9280    -0.0550 ca         1 VS8      -0.098500
     25 CAD          5.8060    -0.7660     0.9760 ca         1 VS8      -0.110000
     26 CAH          4.5070    -1.2530     0.7520 ca         1 VS8      -0.098500
     27 CAV          3.4860    -0.4150     0.2420 ca         1 VS8      -0.032800
     28 NAT          1.8540    -2.3750     0.0540 na         1 VS8      -0.316400
     29 HAO2        -3.8620     1.5580    -2.1280 hc         1 VS8       0.046200
     30 HAM1        -5.4650     3.0800    -0.9260 hc         1 VS8       0.041450
     31 HAM2        -5.9890     1.4010    -0.8500 hc         1 VS8       0.041450
     32 HBC         -4.1400    -0.4840    -0.7390 h1         1 VS8       0.079700
     33 HAL1        -6.2260     2.4470     1.3950 hc         1 VS8       0.040200
     34 HAL2        -4.5430     2.9630     1.3810 hc         1 VS8       0.040200
     35 HAN1        -4.7670     0.9080     2.7630 hc         1 VS8       0.041450
     36 HAN2        -5.5570     0.0520     1.4420 hc         1 VS8       0.041450
     37 HAP1        -2.6460     1.0610     1.4780 hc         1 VS8       0.046200
     38 HAP2        -3.1690    -0.6180     1.5660 hc         1 VS8       0.046200
     39 HAA1        -3.2770    -4.5770    -0.5070 hn         1 VS8       0.481000
     40 HAA2        -1.8660    -5.5200    -0.1600 hn         1 VS8       0.481000
     41 HAH          4.3010    -2.2910     0.9970 ha         1 VS8       0.118000
     42 HAI          3.1040     1.6110    -0.4860 ha         1 VS8       0.118000
     43 HAD          6.5720    -1.4260     1.3760 ha         1 VS8       0.114000
     44 HAB          7.1220     0.9480     0.8580 ha         1 VS8       0.114000
     45 HAE          5.3630     2.4490    -0.0690 ha         1 VS8       0.114000
     46 HAJ          0.8590     1.3380     1.8110 ha         1 VS8       0.122000
     47 HAK          0.4690     1.1760    -2.4870 ha         1 VS8       0.122000
     48 HAF          0.3990     3.7860     1.7600 ha         1 VS8       0.113500
     49 HAC         -0.0320     4.9290    -0.4140 ha         1 VS8       0.112000
     50 HAG          0.0030     3.6220    -2.5370 ha         1 VS8       0.113500
     51 HAT          2.5240    -3.1120     0.2300 hn         1 VS8       0.361000
     52 NAS         -2.0660    -0.0580    -0.8880 nu         1 VS8      -0.921100
     53 HAO1        -3.0770     2.4060    -0.7970 hc         1 VS8       0.046200
     54 HAS         -1.3890     0.7020    -0.8770 hn         1 VS8       0.501000
@<TRIPOS>BOND
     1     1     5 ar  
     2     1    21 ar  
     3     1    47 1   
     4     2     3 ar  
     5     2    21 ar  
     6     2    46 1   
     7     3     4 ar  
     8     3    48 1   
     9     4     5 ar  
    10     4    49 1   
    11     5    50 1   
    12     6    10 1   
    13     6    11 1   
    14     6    35 1   
    15     6    36 1   
    16     7     8 1   
    17     7     9 1   
    18     7    29 1   
    19     7    53 1   
    20     8    11 1   
    21     8    32 1   
    22     8    52 1   
    23     9    10 1   
    24     9    30 1   
    25     9    31 1   
    26    10    33 1   
    27    10    34 1   
    28    11    37 1   
    29    11    38 1   
    30    12    13 ar  
    31    12    14 ar  
    32    12    16 1   
    33    13    19 ar  
    34    13    28 1   
    35    14    15 ar  
    36    14    52 1   
    37    15    17 ar  
    38    16    20 2   
    39    16    21 1   
    40    17    18 1   
    41    17    19 ar  
    42    18    39 1   
    43    18    40 1   
    44    20    27 1   
    45    20    28 1   
    46    22    23 ar  
    47    22    24 ar  
    48    22    45 1   
    49    23    25 ar  
    50    23    44 1   
    51    24    27 ar  
    52    24    42 1   
    53    25    26 ar  
    54    25    43 1   
    55    26    27 ar  
    56    26    41 1   
    57    28    51 1   
    58    52    54 1   
@<TRIPOS>SUBSTRUCTURE
     1 VS8         1 TEMP              0 ****  ****    0 ROOT
