@<TRIPOS>MOLECULE
VS9
   48    51     1     0     0
SMALL
abcg2


@<TRIPOS>ATOM
      1 C17         -1.1160    10.5060    12.8590 c5         1 VS9      -0.071400
      2 C1          -2.4010     4.1420    14.4720 ca         1 VS9      -0.101000
      3 C4          -5.1260     3.9600    14.8110 ca         1 VS9      -0.106000
      4 C12         -0.5680     8.0110    13.2840 c6         1 VS9      -0.061400
      5 C2          -2.9750     2.8960    14.6580 ca         1 VS9      -0.109000
      6 C3          -4.3460     2.8210    14.8260 ca         1 VS9       0.100100
      7 C16         -2.4380    11.3080    12.8540 c5         1 VS9      -0.077400
      8 C11         -1.2130     6.6300    13.4340 c6         1 VS9      -0.067400
      9 C8          -3.4910     7.7260    13.7730 c6         1 VS9      -0.046700
     10 C7          -4.7070     7.7350    14.6880 c6         1 VS9      -0.070400
     11 C14         -2.7760     9.0630    13.7000 c5         1 VS9      -0.060700
     12 C9          -2.4940     6.6700    14.2790 c6         1 VS9      -0.013400
     13 C6          -5.4520     6.4150    14.5780 c6         1 VS9      -0.032100
     14 C15         -3.5470    10.3130    13.2800 c5         1 VS9      -0.070400
     15 C5          -4.5450     5.2120    14.6170 ca         1 VS9      -0.061300
     16 C13         -1.5590     9.0430    12.7630 c5         1 VS9      -0.050000
     17 C10         -3.1580     5.3150    14.4470 ca         1 VS9      -0.055300
     18 O3          -4.9580     1.5810    14.9630 os         1 VS9      -0.446800
     19 S22         -5.0530     0.9820    16.4730 s6         1 VS9       1.408800
     20 O20         -5.9050     1.8620    17.2370 o          1 VS9      -0.563500
     21 N19         -5.8160    -0.3990    16.1200 n8         1 VS9      -1.062100
     22 H1          -0.5810    10.6640    13.8000 hc         1 VS9       0.042200
     23 H2          -0.4410    10.8020    12.0530 hc         1 VS9       0.042200
     24 H3          -1.3280     4.1880    14.3450 ha         1 VS9       0.119000
     25 H4          -6.1990     3.8790    14.9370 ha         1 VS9       0.132000
     26 H5           0.3050     7.9380    12.6290 hc         1 VS9       0.041200
     27 H6          -0.1940     8.3350    14.2630 hc         1 VS9       0.041200
     28 H10         -2.3650     2.0020    14.6590 ha         1 VS9       0.137000
     29 H11         -2.3830    12.1600    13.5320 hc         1 VS9       0.039700
     30 H12         -2.6440    11.7170    11.8640 hc         1 VS9       0.039700
     31 H13         -1.4330     6.1990    12.4530 hc         1 VS9       0.042700
     32 H14         -0.4810     5.9660    13.8960 hc         1 VS9       0.042700
     33 H15         -3.8310     7.4430    12.7670 hc         1 VS9       0.056700
     34 H16         -4.3830     7.9080    15.7200 hc         1 VS9       0.045200
     35 H17         -5.3850     8.5520    14.4310 hc         1 VS9       0.045200
     36 H18         -2.3780     9.2610    14.7080 hc         1 VS9       0.044700
     37 H19         -2.1930     6.9990    15.2850 hc         1 VS9       0.056700
     38 H20         -6.0070     6.3960    13.6340 hc         1 VS9       0.052200
     39 H21         -6.2040     6.3270    15.3650 hc         1 VS9       0.052200
     40 H22         -4.1630    10.7070    14.0890 hc         1 VS9       0.041700
     41 H23         -4.2240    10.0970    12.4490 hc         1 VS9       0.041700
     42 H24         -5.2840    -1.2440    16.2810 hn         1 VS9       0.501500
     43 H25         -6.7850    -0.4520    16.4070 hn         1 VS9       0.501500
     44 C18         -1.9240     8.7330    11.3060 c3         1 VS9      -0.079100
     45 H7          -2.3480     7.7390    11.1710 hc         1 VS9       0.033033
     46 O21         -3.7060     0.7110    16.9200 o          1 VS9      -0.563500
     47 H8          -2.6410     9.4440    10.8910 hc         1 VS9       0.033033
     48 H9          -1.0240     8.7870    10.6890 hc         1 VS9       0.033033
@<TRIPOS>BOND
     1     1     7 1   
     2     1    16 1   
     3     1    22 1   
     4     1    23 1   
     5     2     5 ar  
     6     2    17 ar  
     7     2    24 1   
     8     3     6 ar  
     9     3    15 ar  
    10     3    25 1   
    11     4     8 1   
    12     4    16 1   
    13     4    26 1   
    14     4    27 1   
    15     5     6 ar  
    16     5    28 1   
    17     6    18 1   
    18     7    14 1   
    19     7    29 1   
    20     7    30 1   
    21     8    12 1   
    22     8    31 1   
    23     8    32 1   
    24     9    10 1   
    25     9    11 1   
    26     9    12 1   
    27     9    33 1   
    28    10    13 1   
    29    10    34 1   
    30    10    35 1   
    31    11    14 1   
    32    11    16 1   
    33    11    36 1   
    34    12    17 1   
    35    12    37 1   
    36    13    15 1   
    37    13    38 1   
    38    13    39 1   
    39    14    40 1   
    40    14    41 1   
    41    15    17 ar  
    42    16    44 1   
    43    18    19 1   
    44    19    20 2   
    45    19    21 1   
    46    19    46 2   
    47    21    42 1   
    48    21    43 1   
    49    44    45 1   
    50    44    47 1   
    51    44    48 1   
@<TRIPOS>SUBSTRUCTURE
     1 VS9         1 TEMP              0 ****  ****    0 ROOT
