@<TRIPOS>MOLECULE
VS9
   48    51     1     0     0
SMALL
No Charge or Current Charge


@<TRIPOS>ATOM
      1 C17         -1.3680    10.8270    12.9930 c5         1 VS9      -0.071400
      2 C1          -2.1160     3.6950    14.5240 ca         1 VS9      -0.101000
      3 C4          -4.9140     3.4780    14.7370 ca         1 VS9      -0.106000
      4 C12         -0.4280     8.3790    13.1930 c6         1 VS9      -0.061400
      5 C2          -2.7100     2.4320    14.6890 ca         1 VS9      -0.109000
      6 C3          -4.1070     2.3260    14.8080 ca         1 VS9       0.100100
      7 C16         -2.8150    11.4330    12.9270 c5         1 VS9      -0.077400
      8 C11         -0.8850     6.8910    13.3200 c6         1 VS9      -0.067400
      9 C8          -3.3060     7.6570    13.7690 c6         1 VS9      -0.046700
     10 C7          -4.5320     7.4000    14.6940 c6         1 VS9      -0.070400
     11 C14         -2.8090     9.1280    13.7170 c5         1 VS9      -0.060700
     12 C9          -2.1240     6.7800    14.2470 c6         1 VS9      -0.013400
     13 C6          -5.2140     6.0060    14.4710 c6         1 VS9      -0.032100
     14 C15         -3.7830    10.2390    13.2430 c5         1 VS9      -0.070400
     15 C5          -4.3250     4.7470    14.5770 ca         1 VS9      -0.061300
     16 C13         -1.6010     9.3080    12.7400 c5         1 VS9      -0.050000
     17 C10         -2.9280     4.8390    14.4690 ca         1 VS9      -0.055300
     18 O3          -4.6800     1.0860    14.9450 os         1 VS9      -0.446800
     19 S22         -5.2060     0.6150    16.4270 s6         1 VS9       1.408800
     20 O20         -4.6980     1.4900    17.4810 o          1 VS9      -0.563500
     21 N19         -6.7750     0.9820    16.2780 n8         1 VS9      -1.062100
     22 H1          -0.9190    11.0060    13.9780 hc         1 VS9       0.042200
     23 H2          -0.6950    11.2780    12.2560 hc         1 VS9       0.042200
     24 H3          -1.0360     3.7870    14.4390 ha         1 VS9       0.119000
     25 H4          -5.9950     3.3840    14.8010 ha         1 VS9       0.132000
     26 H5           0.4200     8.4590    12.4980 hc         1 VS9       0.041200
     27 H6          -0.0530     8.7130    14.1700 hc         1 VS9       0.041200
     28 H10         -2.0910     1.5390    14.7270 ha         1 VS9       0.137000
     29 H11         -2.9300    12.2500    13.6470 hc         1 VS9       0.039700
     30 H12         -3.0280    11.8550    11.9380 hc         1 VS9       0.039700
     31 H13         -1.1130     6.4650    12.3350 hc         1 VS9       0.042700
     32 H14         -0.0640     6.2880    13.7300 hc         1 VS9       0.042700
     33 H15         -3.5920     7.3470    12.7550 hc         1 VS9       0.056700
     34 H16         -4.2340     7.5020    15.7470 hc         1 VS9       0.045200
     35 H17         -5.2890     8.1780    14.5220 hc         1 VS9       0.045200
     36 H18         -2.5050     9.3490    14.7490 hc         1 VS9       0.044700
     37 H19         -1.8200     7.1150    15.2500 hc         1 VS9       0.056700
     38 H20         -5.6850     6.0060    13.4780 hc         1 VS9       0.052200
     39 H21         -6.0450     5.9130    15.1840 hc         1 VS9       0.052200
     40 H22         -4.5140    10.5010    14.0160 hc         1 VS9       0.041700
     41 H23         -4.3540     9.9340    12.3590 hc         1 VS9       0.041700
     42 H24         -7.1480     0.0440    16.3870 hn         1 VS9       0.501500
     43 H25         -6.9230     1.3740    17.2020 hn         1 VS9       0.501500
     44 C18         -1.8900     9.0210    11.2250 c3         1 VS9      -0.079100
     45 H7          -2.2170     7.9920    11.0440 hc         1 VS9       0.033033
     46 O21         -5.1750    -0.8400    16.5480 o          1 VS9      -0.563500
     47 H8          -2.6590     9.6760    10.8030 hc         1 VS9       0.033033
     48 H9          -0.9870     9.1800    10.6230 hc         1 VS9       0.033033
@<TRIPOS>BOND
     1     1     7 1   
     2     1    16 1   
     3     1    22 1   
     4     1    23 1   
     5     2     5 ar  
     6     2    17 ar  
     7     2    24 1   
     8     3     6 ar  
     9     3    15 ar  
    10     3    25 1   
    11     4     8 1   
    12     4    16 1   
    13     4    26 1   
    14     4    27 1   
    15     5     6 ar  
    16     5    28 1   
    17     6    18 1   
    18     7    14 1   
    19     7    29 1   
    20     7    30 1   
    21     8    12 1   
    22     8    31 1   
    23     8    32 1   
    24     9    10 1   
    25     9    11 1   
    26     9    12 1   
    27     9    33 1   
    28    10    13 1   
    29    10    34 1   
    30    10    35 1   
    31    11    14 1   
    32    11    16 1   
    33    11    36 1   
    34    12    17 1   
    35    12    37 1   
    36    13    15 1   
    37    13    38 1   
    38    13    39 1   
    39    14    40 1   
    40    14    41 1   
    41    15    17 ar  
    42    16    44 1   
    43    18    19 1   
    44    19    20 2   
    45    19    21 1   
    46    19    46 2   
    47    21    42 1   
    48    21    43 1   
    49    44    45 1   
    50    44    47 1   
    51    44    48 1   
@<TRIPOS>SUBSTRUCTURE
     1 VS9         1 TEMP              0 ****  ****    0 ROOT
