@<TRIPOS>MOLECULE
VSA
   55    59     1     0     0
SMALL
No Charge or Current Charge


@<TRIPOS>ATOM
      1 CAP          5.3280     2.9710     0.9080 c5         1 VSA      -0.094400
      2 CAN          6.4280     3.9590     0.4250 c5         1 VSA      -0.081900
      3 CAO          6.4630     3.7900    -1.1290 c5         1 VSA      -0.081900
      4 CAQ          5.3590     2.7390    -1.4360 c5         1 VSA      -0.094400
      5 CBD          5.3970     1.8540    -0.1650 c5         1 VSA       0.077300
      6 NBE          4.3380     0.8400    -0.0770 na         1 VSA      -0.171400
      7 CAM          2.9580     1.1210    -0.1430 cc         1 VSA      -0.161100
      8 C4           4.5440    -0.5230     0.1120 ca         1 VSA       0.150500
      9 N3           5.6890    -1.2100     0.3010 nb         1 VSA      -0.234000
     10 C2           5.5560    -2.5320     0.5510 ca         1 VSA       0.177900
     11 N1           4.3960    -3.2170     0.6690 nb         1 VSA      -0.303000
     12 C6           3.2690    -2.5180     0.4760 ca         1 VSA       0.426900
     13 NAA          2.1340    -3.2090     0.7340 nv         1 VSA      -1.068900
     14 C5           3.3160    -1.1490     0.1510 ca         1 VSA      -0.242800
     15 CBA          2.3220    -0.1080    -0.0840 cd         1 VSA      -0.057400
     16 CAY          0.8530    -0.2670    -0.1340 ca         1 VSA      -0.041800
     17 CAK          0.2500    -1.3900    -0.7340 ca         1 VSA      -0.083000
     18 CAI         -1.1500    -1.5060    -0.7990 ca         1 VSA      -0.151000
     19 CAJ          0.0180     0.7650     0.3400 ca         1 VSA      -0.083000
     20 CAH         -1.3820     0.6490     0.2800 ca         1 VSA      -0.151000
     21 CAX         -1.9810    -0.4980    -0.2820 ca         1 VSA      -0.008000
     22 NAU         -3.3880    -0.6850    -0.3850 ns         1 VSA      -0.162000
     23 CAV         -4.4670     0.0530     0.0810 c          1 VSA       0.671100
     24 OAB         -4.3690     1.0830     0.7390 o          1 VSA      -0.605100
     25 NAT         -5.6720    -0.5280    -0.2890 ns         1 VSA      -0.162000
     26 CAW         -7.0280    -0.1600    -0.0610 ca         1 VSA      -0.005000
     27 CAF         -7.4180     1.0020     0.6420 ca         1 VSA      -0.153000
     28 CAD         -8.7800     1.2990     0.8260 ca         1 VSA      -0.081500
     29 CAC         -9.7650     0.4410     0.3120 ca         1 VSA      -0.137000
     30 CAE         -9.3880    -0.7160    -0.3880 ca         1 VSA      -0.081500
     31 CAG         -8.0260    -1.0120    -0.5720 ca         1 VSA      -0.153000
     32 H1           5.5250     2.5910     1.9170 hc         1 VSA       0.055950
     33 H2           4.3430     3.4530     0.9310 hc         1 VSA       0.055950
     34 H3           6.2030     4.9900     0.7230 hc         1 VSA       0.047450
     35 H4           7.4020     3.7090     0.8620 hc         1 VSA       0.047450
     36 H5           6.2790     4.7360    -1.6530 hc         1 VSA       0.047450
     37 H6           7.4470     3.4340    -1.4560 hc         1 VSA       0.047450
     38 H7           4.3820     3.2170    -1.5750 hc         1 VSA       0.055950
     39 H8           5.5730     2.1680    -2.3470 hc         1 VSA       0.055950
     40 H9           6.3720     1.3500    -0.1030 h1         1 VSA       0.095700
     41 H10          2.5610     2.1220    -0.2720 h4         1 VSA       0.220000
     42 H11          6.4750    -3.0950     0.7020 h5         1 VSA       0.043100
     43 H12          2.2200    -4.0890     1.2340 hn         1 VSA       0.493000
     44 H13          1.2850    -2.6750     0.8910 hn         1 VSA       0.493000
     45 H14          0.8620    -2.1540    -1.2050 ha         1 VSA       0.120500
     46 H15         -1.5880    -2.3840    -1.2690 ha         1 VSA       0.128500
     47 H16          0.4520     1.6570     0.7850 ha         1 VSA       0.120500
     48 H17         -1.9800     1.4660     0.6710 ha         1 VSA       0.128500
     49 H18         -3.6470    -1.5170    -0.8980 hn         1 VSA       0.145000
     50 H19         -5.5710    -1.3790    -0.8270 hn         1 VSA       0.145000
     51 H20         -6.6860     1.6900     1.0520 ha         1 VSA       0.127000
     52 H21         -9.0720     2.1960     1.3690 ha         1 VSA       0.113500
     53 H22        -10.8180     0.6720     0.4560 ha         1 VSA       0.116000
     54 H23        -10.1490    -1.3820    -0.7880 ha         1 VSA       0.113500
     55 H24         -7.7480    -1.9120    -1.1170 ha         1 VSA       0.127000
@<TRIPOS>BOND
     1     1     2 1   
     2     1     5 1   
     3     1    32 1   
     4     1    33 1   
     5     2     3 1   
     6     2    34 1   
     7     2    35 1   
     8     3     4 1   
     9     3    36 1   
    10     3    37 1   
    11     4     5 1   
    12     4    38 1   
    13     4    39 1   
    14     5     6 1   
    15     5    40 1   
    16     6     7 1   
    17     6     8 1   
    18     7    15 2   
    19     7    41 1   
    20     8     9 ar  
    21     8    14 ar  
    22     9    10 ar  
    23    10    11 ar  
    24    10    42 1   
    25    11    12 ar  
    26    12    13 1   
    27    12    14 ar  
    28    13    43 1   
    29    13    44 1   
    30    14    15 1   
    31    15    16 1   
    32    16    17 ar  
    33    16    19 ar  
    34    17    18 ar  
    35    17    45 1   
    36    18    21 ar  
    37    18    46 1   
    38    19    20 ar  
    39    19    47 1   
    40    20    21 ar  
    41    20    48 1   
    42    21    22 1   
    43    22    23 1   
    44    22    49 1   
    45    23    24 2   
    46    23    25 1   
    47    25    26 1   
    48    25    50 1   
    49    26    27 ar  
    50    26    31 ar  
    51    27    28 ar  
    52    27    51 1   
    53    28    29 ar  
    54    28    52 1   
    55    29    30 ar  
    56    29    53 1   
    57    30    31 ar  
    58    30    54 1   
    59    31    55 1   
@<TRIPOS>SUBSTRUCTURE
     1 VSA         1 TEMP              0 ****  ****    0 ROOT
