@<TRIPOS>MOLECULE
VSA
   55    59     1     0     0
SMALL
bcc


@<TRIPOS>ATOM
      1 CAP          5.2620     2.8500     0.9870 c5         1 VSA      -0.094400
      2 CAN          5.0620     4.1710     0.2390 c5         1 VSA      -0.081900
      3 CAO          5.7560     3.9360    -1.1010 c5         1 VSA      -0.081900
      4 CAQ          5.3350     2.5140    -1.4530 c5         1 VSA      -0.094400
      5 CBD          5.3860     1.7620    -0.1100 c5         1 VSA       0.048000
      6 NBE          4.3780     0.7220    -0.0110 na         1 VSA      -0.142100
      7 CAM          3.0220     0.9180    -0.0670 cc         1 VSA      -0.111100
      8 C4           4.6100    -0.6030     0.1570 ca         1 VSA       0.478800
      9 N3           5.8120    -1.1740     0.2630 nb         1 VSA      -0.760000
     10 C2           5.7460    -2.4760     0.4460 ca         1 VSA       0.703900
     11 N1           4.6580    -3.2330     0.5600 nb         1 VSA      -0.829000
     12 C6           3.4580    -2.6520     0.4680 ca         1 VSA       0.755200
     13 NAA          2.3800    -3.4400     0.6180 nv         1 VSA      -0.958500
     14 C5           3.3770    -1.2680     0.2110 ca         1 VSA      -0.373400
     15 CBA          2.3550    -0.2710     0.0560 cd         1 VSA      -0.057400
     16 CAY          0.8990    -0.4260    -0.0070 ca         1 VSA      -0.041800
     17 CAK          0.3000    -1.4150    -0.7900 ca         1 VSA      -0.101000
     18 CAI         -1.0750    -1.5270    -0.8720 ca         1 VSA      -0.169000
     19 CAJ          0.0540     0.4430     0.6800 ca         1 VSA      -0.101000
     20 CAH         -1.3270     0.3480     0.6030 ca         1 VSA      -0.169000
     21 CAX         -1.9130    -0.6470    -0.1820 ca         1 VSA       0.084600
     22 NAU         -3.2850    -0.8540    -0.3160 ns         1 VSA      -0.488100
     23 CAV         -4.3070    -0.0090     0.0290 c          1 VSA       0.805100
     24 OAB         -4.1400     1.0680     0.5750 o          1 VSA      -0.605100
     25 NAT         -5.5320    -0.5170    -0.3060 ns         1 VSA      -0.488100
     26 CAW         -6.7950     0.0400    -0.0980 ca         1 VSA       0.087600
     27 CAF         -7.0340     1.2860     0.4860 ca         1 VSA      -0.171000
     28 CAD         -8.3400     1.7330     0.6410 ca         1 VSA      -0.099500
     29 CAC         -9.4210     0.9710     0.2270 ca         1 VSA      -0.155000
     30 CAE         -9.1820    -0.2680    -0.3540 ca         1 VSA      -0.099500
     31 CAG         -7.8870    -0.7280    -0.5160 ca         1 VSA      -0.171000
     32 H1           6.1860     2.8790     1.5670 hc         1 VSA       0.055950
     33 H2           4.4570     2.6350     1.6900 hc         1 VSA       0.055950
     34 H3           3.9970     4.3560     0.0710 hc         1 VSA       0.047450
     35 H4           5.4570     5.0290     0.7850 hc         1 VSA       0.047450
     36 H5           5.4740     4.6600    -1.8670 hc         1 VSA       0.047450
     37 H6           6.8410     3.9960    -0.9780 hc         1 VSA       0.047450
     38 H7           4.3110     2.5250    -1.8370 hc         1 VSA       0.055950
     39 H8           5.9580     2.0400    -2.2110 hc         1 VSA       0.055950
     40 H9           6.3420     1.2490    -0.0130 h1         1 VSA       0.095700
     41 H10          2.6120     1.9040    -0.2230 h4         1 VSA       0.170000
     42 H11          6.6920    -3.0020     0.5260 h5         1 VSA       0.043100
     43 H12          2.5210    -4.3800     0.9470 hn         1 VSA       0.437800
     44 H13          1.4710    -3.0400     0.7750 hn         1 VSA       0.437800
     45 H14          0.9120    -2.0970    -1.3670 ha         1 VSA       0.138500
     46 H15         -1.5060    -2.3040    -1.4930 ha         1 VSA       0.146500
     47 H16          0.4840     1.2130     1.3100 ha         1 VSA       0.138500
     48 H17         -1.9320     1.0410     1.1640 ha         1 VSA       0.146500
     49 H18         -3.5310    -1.6990    -0.8070 hn         1 VSA       0.311500
     50 H19         -5.5500    -1.4170    -0.7600 hn         1 VSA       0.311500
     51 H20         -6.2190     1.9080     0.8190 ha         1 VSA       0.145000
     52 H21         -8.5060     2.7010     1.0970 ha         1 VSA       0.131500
     53 H22        -10.4320     1.3330     0.3550 ha         1 VSA       0.134000
     54 H23        -10.0080    -0.8850    -0.6850 ha         1 VSA       0.131500
     55 H24         -7.7170    -1.6970    -0.9720 ha         1 VSA       0.145000
@<TRIPOS>BOND
     1     1     2 1   
     2     1     5 1   
     3     1    32 1   
     4     1    33 1   
     5     2     3 1   
     6     2    34 1   
     7     2    35 1   
     8     3     4 1   
     9     3    36 1   
    10     3    37 1   
    11     4     5 1   
    12     4    38 1   
    13     4    39 1   
    14     5     6 1   
    15     5    40 1   
    16     6     7 1   
    17     6     8 1   
    18     7    15 2   
    19     7    41 1   
    20     8     9 ar  
    21     8    14 ar  
    22     9    10 ar  
    23    10    11 ar  
    24    10    42 1   
    25    11    12 ar  
    26    12    13 1   
    27    12    14 ar  
    28    13    43 1   
    29    13    44 1   
    30    14    15 1   
    31    15    16 1   
    32    16    17 ar  
    33    16    19 ar  
    34    17    18 ar  
    35    17    45 1   
    36    18    21 ar  
    37    18    46 1   
    38    19    20 ar  
    39    19    47 1   
    40    20    21 ar  
    41    20    48 1   
    42    21    22 1   
    43    22    23 1   
    44    22    49 1   
    45    23    24 2   
    46    23    25 1   
    47    25    26 1   
    48    25    50 1   
    49    26    27 ar  
    50    26    31 ar  
    51    27    28 ar  
    52    27    51 1   
    53    28    29 ar  
    54    28    52 1   
    55    29    30 ar  
    56    29    53 1   
    57    30    31 ar  
    58    30    54 1   
    59    31    55 1   
@<TRIPOS>SUBSTRUCTURE
     1 VSA         1 TEMP              0 ****  ****    0 ROOT
