@<TRIPOS>MOLECULE
VSB
   70    75     1     0     0
SMALL
bcc


@<TRIPOS>ATOM
      1 CAX         -4.8830    -2.5550    -1.0060 c6         1 VSB       0.127800
      2 CAY         -4.7870    -4.0700    -0.8440 c6         1 VSB       0.160300
      3 NAZ         -5.4830    -4.5910     0.3170 n3         1 VSB      -0.707600
      4 CBC         -6.9230    -4.6190     0.1610 c3         1 VSB       0.149100
      5 CBA         -5.0430    -3.8560     1.4880 c6         1 VSB       0.160300
      6 CBB         -5.1420    -2.3430     1.3420 c6         1 VSB       0.127800
      7 NAW         -4.3870    -1.8770     0.1850 n3         1 VSB      -0.716600
      8 CAT         -4.4010    -0.4150     0.0880 c6         1 VSB       0.185500
      9 CAU         -3.8520     0.0860    -1.2510 c6         1 VSB      -0.077900
     10 CAV         -3.7670     1.6100    -1.3190 c6         1 VSB      -0.088400
     11 CAS         -3.5910     0.2070     1.2300 c6         1 VSB      -0.077900
     12 CAR         -3.6150     1.7290     1.1810 c6         1 VSB      -0.088400
     13 CAQ         -3.0900     2.2960    -0.1360 c6         1 VSB       0.062000
     14 NAG         -1.6300     2.2720    -0.1970 na         1 VSB      -0.146100
     15 CAH         -0.7970     1.1940    -0.3670 cc         1 VSB      -0.098100
     16 C4          -0.8530     3.3720    -0.0070 ca         1 VSB       0.469800
     17 N3          -1.3030     4.6120     0.2010 nb         1 VSB      -0.762000
     18 C2          -0.3350     5.4870     0.3710 ca         1 VSB       0.703900
     19 N1           0.9770     5.2650     0.3910 nb         1 VSB      -0.826000
     20 C6           1.4190     4.0200     0.2000 ca         1 VSB       0.753200
     21 NAK          2.7480     3.8190     0.2540 nv         1 VSB      -0.955500
     22 C5           0.4930     2.9880    -0.0600 ca         1 VSB      -0.369400
     23 CAI          0.5150     1.5770    -0.3010 cd         1 VSB      -0.073400
     24 CAJ          1.6600     0.6790    -0.4820 ca         1 VSB      -0.013800
     25 CAP          1.7020    -0.5560     0.1680 ca         1 VSB      -0.121500
     26 CAO          2.7670    -1.4250    -0.0130 ca         1 VSB      -0.135000
     27 CAL          2.7170     1.0140    -1.3320 ca         1 VSB      -0.121500
     28 CAM          3.7910     0.1570    -1.5120 ca         1 VSB      -0.135000
     29 CAN          3.8100    -1.0620    -0.8510 ca         1 VSB       0.093100
     30 OBD          4.8460    -1.9380    -1.0570 os         1 VSB      -0.256200
     31 CBE          5.9970    -1.7870    -0.3420 ca         1 VSB       0.137100
     32 CBF          7.0440    -2.6380    -0.6840 ca         1 VSB      -0.179500
     33 CBG          8.2450    -2.5580     0.0000 ca         1 VSB      -0.096500
     34 CBH          8.4170    -1.6330     1.0250 ca         1 VSB      -0.161000
     35 CBI          7.3670    -0.7920     1.3570 ca         1 VSB      -0.096500
     36 CBJ          6.1530    -0.8600     0.6820 ca         1 VSB      -0.179500
     37 H1          -4.2760    -2.2850    -1.8700 h1         1 VSB       0.034450
     38 H2          -5.1690    -4.5550    -1.7460 h1         1 VSB       0.058200
     39 H3          -3.7290    -4.3400    -0.7590 h1         1 VSB       0.058200
     40 H5          -7.1860    -5.2620    -0.6810 h1         1 VSB       0.030033
     41 H6          -7.3790    -5.0460     1.0550 h1         1 VSB       0.030033
     42 H7          -7.3960    -3.6430    -0.0140 h1         1 VSB       0.030033
     43 H8          -5.6210    -4.1780     2.3580 h1         1 VSB       0.058200
     44 H9          -3.9970    -4.1160     1.6840 h1         1 VSB       0.058200
     45 H10         -6.2010    -2.0330     1.2750 h1         1 VSB       0.034450
     46 H11         -5.4420    -0.0460     0.1720 h1         1 VSB       0.020700
     47 H12         -2.8810    -0.3790    -1.4450 hc         1 VSB       0.049450
     48 H13         -3.2920     1.9170    -2.2530 hc         1 VSB       0.055700
     49 H14         -4.7870     2.0020    -1.3550 hc         1 VSB       0.055700
     50 H15         -3.9790    -0.1030     2.2000 hc         1 VSB       0.049450
     51 H16         -2.5630    -0.1660     1.1840 hc         1 VSB       0.049450
     52 H17         -4.6470     2.0740     1.3010 hc         1 VSB       0.055700
     53 H18         -3.0530     2.1490     2.0180 hc         1 VSB       0.055700
     54 H19         -3.3410     3.3560    -0.1780 h1         1 VSB       0.093700
     55 H20         -1.1820     0.2080    -0.5640 h4         1 VSB       0.176000
     56 H22         -0.6380     6.5180     0.5250 h5         1 VSB       0.043100
     57 H23          3.3260     4.5700     0.5930 hn         1 VSB       0.437300
     58 H24          3.1180     2.8900     0.3530 hn         1 VSB       0.437300
     59 H26          0.9000    -0.8350     0.8390 ha         1 VSB       0.142500
     60 H27          2.7900    -2.3770     0.5020 ha         1 VSB       0.148000
     61 H28          2.6940     1.9470    -1.8820 ha         1 VSB       0.142500
     62 H29          4.6000     0.4280    -2.1780 ha         1 VSB       0.148000
     63 H30          6.9130    -3.3570    -1.4830 ha         1 VSB       0.143000
     64 H31          9.0550    -3.2230    -0.2730 ha         1 VSB       0.131000
     65 H32          9.3570    -1.5730     1.5560 ha         1 VSB       0.133000
     66 H33          7.4810    -0.0680     2.1540 ha         1 VSB       0.131000
     67 H34          5.3490    -0.1920     0.9640 ha         1 VSB       0.143000
     68 H35         -5.9210    -2.2600    -1.2420 h1         1 VSB       0.034450
     69 H4          -4.7480    -1.8970     2.2550 h1         1 VSB       0.034450
     70 H36         -4.4990    -0.2280    -2.0720 hc         1 VSB       0.049450
@<TRIPOS>BOND
     1     1     2 1   
     2     1     7 1   
     3     1    37 1   
     4     1    68 1   
     5     2     3 1   
     6     2    38 1   
     7     2    39 1   
     8     3     4 1   
     9     3     5 1   
    10     4    40 1   
    11     4    41 1   
    12     4    42 1   
    13     5     6 1   
    14     5    43 1   
    15     5    44 1   
    16     6     7 1   
    17     6    45 1   
    18     6    69 1   
    19     7     8 1   
    20     8     9 1   
    21     8    11 1   
    22     8    46 1   
    23     9    10 1   
    24     9    47 1   
    25     9    70 1   
    26    10    13 1   
    27    10    48 1   
    28    10    49 1   
    29    11    12 1   
    30    11    50 1   
    31    11    51 1   
    32    12    13 1   
    33    12    52 1   
    34    12    53 1   
    35    13    14 1   
    36    13    54 1   
    37    14    15 1   
    38    14    16 1   
    39    15    23 2   
    40    15    55 1   
    41    16    17 ar  
    42    16    22 ar  
    43    17    18 ar  
    44    18    19 ar  
    45    18    56 1   
    46    19    20 ar  
    47    20    21 1   
    48    20    22 ar  
    49    21    57 1   
    50    21    58 1   
    51    22    23 1   
    52    23    24 1   
    53    24    25 ar  
    54    24    27 ar  
    55    25    26 ar  
    56    25    59 1   
    57    26    29 ar  
    58    26    60 1   
    59    27    28 ar  
    60    27    61 1   
    61    28    29 ar  
    62    28    62 1   
    63    29    30 1   
    64    30    31 1   
    65    31    32 ar  
    66    31    36 ar  
    67    32    33 ar  
    68    32    63 1   
    69    33    34 ar  
    70    33    64 1   
    71    34    35 ar  
    72    34    65 1   
    73    35    36 ar  
    74    35    66 1   
    75    36    67 1   
@<TRIPOS>SUBSTRUCTURE
     1 VSB         1 TEMP              0 ****  ****    0 ROOT
