@<TRIPOS>MOLECULE
VSB
   70    75     1     0     0
SMALL
No Charge or Current Charge


@<TRIPOS>ATOM
      1 CAX         -5.1630    -2.5860    -1.1810 c6         1 VSB       0.127800
      2 CAY         -5.2230    -4.1480    -1.0950 c6         1 VSB       0.160300
      3 NAZ         -5.9180    -4.6350     0.1330 n3         1 VSB      -0.707600
      4 CBC         -7.3860    -4.4260     0.1020 c3         1 VSB       0.149100
      5 CBA         -5.2590    -4.0340     1.3310 c6         1 VSB       0.160300
      6 CBB         -5.1990    -2.4720     1.2720 c6         1 VSB       0.127800
      7 NAW         -4.5310    -1.9490     0.0280 n3         1 VSB      -0.716600
      8 CAT         -4.5200    -0.4420    -0.0420 c6         1 VSB       0.185500
      9 CAU         -3.8070     0.0760    -1.3370 c6         1 VSB      -0.077900
     10 CAV         -3.7010     1.6220    -1.4050 c6         1 VSB      -0.088400
     11 CAS         -3.8440     0.1960     1.2180 c6         1 VSB      -0.077900
     12 CAR         -3.7480     1.7420     1.1450 c6         1 VSB      -0.088400
     13 CAQ         -3.0700     2.2670    -0.1460 c6         1 VSB       0.091300
     14 NAG         -1.5790     2.1680    -0.1110 na         1 VSB      -0.175400
     15 CAH         -0.7890     1.0030    -0.0530 cc         1 VSB      -0.148100
     16 C4          -0.7860     3.3130    -0.0950 ca         1 VSB       0.141500
     17 N3          -1.1230     4.6200    -0.0630 nb         1 VSB      -0.236000
     18 C2          -0.1000     5.4980     0.0380 ca         1 VSB       0.177900
     19 N1           1.2130     5.1960     0.1520 nb         1 VSB      -0.300000
     20 C6           1.5300     3.8940     0.1160 ca         1 VSB       0.424900
     21 NAK          2.8340     3.6330     0.3670 nv         1 VSB      -1.065900
     22 C5           0.5340     2.9130    -0.0490 ca         1 VSB      -0.238800
     23 CAI          0.5210     1.4520    -0.0960 cd         1 VSB      -0.073400
     24 CAJ          1.6890     0.5460    -0.0690 ca         1 VSB      -0.013800
     25 CAP          1.5910    -0.7060     0.5770 ca         1 VSB      -0.103500
     26 CAO          2.6790    -1.5960     0.5910 ca         1 VSB      -0.117000
     27 CAL          2.8800     0.8540    -0.7600 ca         1 VSB      -0.103500
     28 CAM          3.9690    -0.0350    -0.7510 ca         1 VSB      -0.117000
     29 CAN          3.8760    -1.2560    -0.0560 ca         1 VSB       0.093100
     30 OBD          4.9210    -2.1530    -0.0450 os         1 VSB      -0.256200
     31 CBE          6.2400    -1.7650     0.0290 ca         1 VSB       0.137100
     32 CBF          7.2010    -2.4800    -0.7050 ca         1 VSB      -0.161500
     33 CBG          8.5570    -2.1140    -0.6380 ca         1 VSB      -0.078500
     34 CBH          8.9520    -1.0360     0.1730 ca         1 VSB      -0.143000
     35 CBI          7.9950    -0.3260     0.9190 ca         1 VSB      -0.078500
     36 CBJ          6.6390    -0.6920     0.8510 ca         1 VSB      -0.161500
     37 H1          -4.5960    -2.3480    -2.0900 h1         1 VSB       0.034450
     38 H2          -5.7140    -4.5380    -1.9990 h1         1 VSB       0.058200
     39 H3          -4.1910    -4.5290    -1.1130 h1         1 VSB       0.058200
     40 H5          -7.8270    -4.9270    -0.7700 h1         1 VSB       0.030033
     41 H6          -7.8530    -4.8450     1.0030 h1         1 VSB       0.030033
     42 H7          -7.6420    -3.3600     0.0480 h1         1 VSB       0.030033
     43 H8          -5.7770    -4.3390     2.2520 h1         1 VSB       0.058200
     44 H9          -4.2280    -4.4110     1.4140 h1         1 VSB       0.058200
     45 H10         -6.2210    -2.0710     1.3510 h1         1 VSB       0.034450
     46 H11         -5.5580    -0.0800    -0.0740 h1         1 VSB       0.020700
     47 H12         -2.8150    -0.3810    -1.4350 hc         1 VSB       0.049450
     48 H13         -3.1400     1.9210    -2.3000 hc         1 VSB       0.055700
     49 H14         -4.7130     2.0320    -1.5350 hc         1 VSB       0.055700
     50 H15         -4.4260    -0.0370     2.1180 hc         1 VSB       0.049450
     51 H16         -2.8530    -0.2430     1.3820 hc         1 VSB       0.049450
     52 H17         -4.7640     2.1560     1.1980 hc         1 VSB       0.055700
     53 H18         -3.2200     2.1280     2.0280 hc         1 VSB       0.055700
     54 H19         -3.3150     3.3370    -0.2030 h1         1 VSB       0.093700
     55 H20         -1.1860    -0.0030    -0.0360 h4         1 VSB       0.226000
     56 H22         -0.3630     6.5540     0.0630 h5         1 VSB       0.043100
     57 H23          3.4020     4.3830     0.7510 hn         1 VSB       0.492500
     58 H24          3.0800     2.6870     0.6410 hn         1 VSB       0.492500
     59 H26          0.6760    -0.9850     1.0950 ha         1 VSB       0.124500
     60 H27          2.5960    -2.5500     1.1060 ha         1 VSB       0.130000
     61 H28          2.9470     1.7590    -1.3580 ha         1 VSB       0.124500
     62 H29          4.8730     0.2150    -1.3000 ha         1 VSB       0.130000
     63 H30          6.8930    -3.3150    -1.3290 ha         1 VSB       0.125000
     64 H31          9.2990    -2.6660    -1.2110 ha         1 VSB       0.113000
     65 H32         10.0010    -0.7520     0.2260 ha         1 VSB       0.115000
     66 H33          8.3040     0.5040     1.5510 ha         1 VSB       0.113000
     67 H34          5.9040    -0.1480     1.4380 ha         1 VSB       0.125000
     68 H35         -6.1820    -2.1970    -1.3260 h1         1 VSB       0.034450
     69 H4          -4.6580    -2.1490     2.1710 h1         1 VSB       0.034450
     70 H36         -4.3670    -0.2370    -2.2270 hc         1 VSB       0.049450
@<TRIPOS>BOND
     1     1     2 1   
     2     1     7 1   
     3     1    37 1   
     4     1    68 1   
     5     2     3 1   
     6     2    38 1   
     7     2    39 1   
     8     3     4 1   
     9     3     5 1   
    10     4    40 1   
    11     4    41 1   
    12     4    42 1   
    13     5     6 1   
    14     5    43 1   
    15     5    44 1   
    16     6     7 1   
    17     6    45 1   
    18     6    69 1   
    19     7     8 1   
    20     8     9 1   
    21     8    11 1   
    22     8    46 1   
    23     9    10 1   
    24     9    47 1   
    25     9    70 1   
    26    10    13 1   
    27    10    48 1   
    28    10    49 1   
    29    11    12 1   
    30    11    50 1   
    31    11    51 1   
    32    12    13 1   
    33    12    52 1   
    34    12    53 1   
    35    13    14 1   
    36    13    54 1   
    37    14    15 1   
    38    14    16 1   
    39    15    23 2   
    40    15    55 1   
    41    16    17 ar  
    42    16    22 ar  
    43    17    18 ar  
    44    18    19 ar  
    45    18    56 1   
    46    19    20 ar  
    47    20    21 1   
    48    20    22 ar  
    49    21    57 1   
    50    21    58 1   
    51    22    23 1   
    52    23    24 1   
    53    24    25 ar  
    54    24    27 ar  
    55    25    26 ar  
    56    25    59 1   
    57    26    29 ar  
    58    26    60 1   
    59    27    28 ar  
    60    27    61 1   
    61    28    29 ar  
    62    28    62 1   
    63    29    30 1   
    64    30    31 1   
    65    31    32 ar  
    66    31    36 ar  
    67    32    33 ar  
    68    32    63 1   
    69    33    34 ar  
    70    33    64 1   
    71    34    35 ar  
    72    34    65 1   
    73    35    36 ar  
    74    35    66 1   
    75    36    67 1   
@<TRIPOS>SUBSTRUCTURE
     1 VSB         1 TEMP              0 ****  ****    0 ROOT
