@<TRIPOS>MOLECULE
VSC
   79    82     1     0     0
SMALL
No Charge or Current Charge


@<TRIPOS>ATOM
      1 C22         -3.4960    -0.4420     0.4240 c          1 VSC       0.644100
      2 O23         -3.8350    -0.1910     1.5700 o          1 VSC      -0.540000
      3 O24         -4.3280    -0.7780    -0.5970 os         1 VSC      -0.455100
      4 C25         -5.7280    -0.8980    -0.2970 c3         1 VSC       0.230900
      5 C26         -6.4580    -1.3100    -1.5690 ca         1 VSC      -0.099300
      6 C31         -7.0160    -0.3330    -2.4180 ca         1 VSC      -0.086500
      7 C30         -7.6910    -0.7160    -3.5910 ca         1 VSC      -0.114500
      8 C29         -7.8110    -2.0760    -3.9220 ca         1 VSC      -0.099000
      9 C28         -7.2540    -3.0540    -3.0800 ca         1 VSC      -0.114500
     10 C27         -6.5790    -2.6720    -1.9070 ca         1 VSC      -0.086500
     11 N21         -2.2170    -0.3890    -0.0510 ns         1 VSC      -0.482900
     12 C13         -1.0130    -0.1180     0.7660 c3         1 VSC       0.043700
     13 C11          0.0060     0.7390    -0.0350 c          1 VSC       0.595100
     14 O12         -0.0740     0.9180    -1.2450 o          1 VSC      -0.604100
     15 C14         -0.3640    -1.4390     1.2600 c3         1 VSC      -0.052100
     16 C15         -1.3210    -2.3350     2.0390 ca         1 VSC      -0.090300
     17 C16         -1.9590    -3.4190     1.4030 ca         1 VSC      -0.096500
     18 C20         -1.5820    -2.0800     3.3990 ca         1 VSC      -0.096500
     19 C17         -2.8500    -4.2370     2.1200 ca         1 VSC      -0.106500
     20 C19         -2.4720    -2.8980     4.1160 ca         1 VSC      -0.106500
     21 C18         -3.1070    -3.9770     3.4770 ca         1 VSC      -0.102000
     22 C1           2.0360     3.5560     0.6130 c3         1 VSC      -0.089400
     23 C9           2.1410     2.0730     0.1860 c3         1 VSC       0.112700
     24 C32          3.4890     1.4340     0.5960 c3         1 VSC      -0.065400
     25 C33          3.6030    -0.0660     0.2020 c3         1 VSC      -0.344400
     26 S34          5.2180    -0.7970     0.5570 s6         1 VSC       1.313700
     27 O37          6.1970    -0.2680    -0.4020 o          1 VSC      -0.521500
     28 O36          5.4690    -0.7250     2.0030 o          1 VSC      -0.521500
     29 O35          4.8300    -2.3520     0.1610 os         1 VSC      -0.439800
     30 N10          1.0230     1.2890     0.7210 ns         1 VSC      -0.500900
     31 C3           0.7330     5.7380     0.5130 ca         1 VSC      -0.083300
     32 C4           1.2210     6.7100    -0.3820 ca         1 VSC      -0.106500
     33 C5           1.2100     8.0710    -0.0270 ca         1 VSC      -0.108000
     34 C6           0.7130     8.4660     1.2270 ca         1 VSC      -0.110000
     35 C7           0.2270     7.5000     2.1240 ca         1 VSC      -0.108000
     36 C8           0.2380     6.1400     1.7690 ca         1 VSC      -0.106500
     37 C36          4.6650    -2.6940    -1.1590 ca         1 VSC       0.102100
     38 C37          5.7810    -2.8820    -1.9950 ca         1 VSC      -0.109500
     39 C38          5.5960    -3.2550    -3.3390 ca         1 VSC      -0.094000
     40 C39          4.2970    -3.4510    -3.8410 ca         1 VSC      -0.103000
     41 C40          3.1830    -3.2830    -3.0000 ca         1 VSC      -0.094000
     42 C41          3.3680    -2.9110    -1.6560 ca         1 VSC      -0.109500
     43 H251        -5.8950    -1.6540     0.4810 h1         1 VSC       0.057200
     44 H252        -6.1310     0.0560     0.0680 h1         1 VSC       0.057200
     45 H311        -6.9250     0.7220    -2.1700 ha         1 VSC       0.114000
     46 H301        -8.1200     0.0420    -4.2420 ha         1 VSC       0.114000
     47 H291        -8.3320    -2.3710    -4.8300 ha         1 VSC       0.113000
     48 H281        -7.3450    -4.1070    -3.3370 ha         1 VSC       0.114000
     49 H271        -6.1490    -3.4350    -1.2620 ha         1 VSC       0.114000
     50 H21         -2.1060    -0.5710    -1.0410 hn         1 VSC       0.341500
     51 H131        -1.3080     0.4770     1.6400 h1         1 VSC       0.093700
     52 H141         0.0360    -1.9820     0.3940 hc         1 VSC       0.055200
     53 H142         0.5040    -1.2030     1.8890 hc         1 VSC       0.055200
     54 H161        -1.7700    -3.6260     0.3520 ha         1 VSC       0.110000
     55 H201        -1.0990    -1.2440     3.9000 ha         1 VSC       0.110000
     56 H171        -3.3420    -5.0700     1.6240 ha         1 VSC       0.113000
     57 H191        -2.6720    -2.6950     5.1660 ha         1 VSC       0.113000
     58 H181        -3.7970    -4.6090     4.0310 ha         1 VSC       0.114000
     59 H11          2.0960     3.6250     1.7060 hc         1 VSC       0.051700
     60 H12          2.9030     4.1000     0.2160 hc         1 VSC       0.051700
     61 H91          2.0970     2.0440    -0.9120 h1         1 VSC       0.086700
     62 H321         4.3020     1.9990     0.1220 hc         1 VSC       0.063700
     63 H322         3.6230     1.5380     1.6810 hc         1 VSC       0.063700
     64 H331         2.8780    -0.6730     0.7540 h1         1 VSC       0.107700
     65 H332         3.4440    -0.1930    -0.8740 h1         1 VSC       0.107700
     66 H10          1.0070     1.0990     1.7160 hn         1 VSC       0.316500
     67 H21A         0.6640     4.1550    -0.9580 hc         1 VSC       0.053700
     68 H22         -0.1290     3.7630     0.5570 hc         1 VSC       0.053700
     69 H41          1.6100     6.4130    -1.3540 ha         1 VSC       0.110500
     70 H51          1.5880     8.8170    -0.7220 ha         1 VSC       0.113000
     71 H61          0.7050     9.5190     1.5020 ha         1 VSC       0.113000
     72 H71         -0.1570     7.8050     3.0950 ha         1 VSC       0.113000
     73 H81         -0.1380     5.3980     2.4700 ha         1 VSC       0.110500
     74 H371         6.7860    -2.7410    -1.6060 ha         1 VSC       0.132000
     75 H381         6.4580    -3.3940    -3.9880 ha         1 VSC       0.123000
     76 H391         4.1550    -3.7400    -4.8810 ha         1 VSC       0.121000
     77 H401         2.1790    -3.4440    -3.3870 ha         1 VSC       0.123000
     78 H411         2.5080    -2.7890    -1.0030 ha         1 VSC       0.132000
     79 C2           0.7490     4.2640     0.1310 c3         1 VSC      -0.029100
@<TRIPOS>BOND
     1     1     2 2   
     2     1     3 1   
     3     1    11 1   
     4     3     4 1   
     5     4     5 1   
     6     4    43 1   
     7     4    44 1   
     8     5     6 ar  
     9     5    10 ar  
    10     6     7 ar  
    11     6    45 1   
    12     7     8 ar  
    13     7    46 1   
    14     8     9 ar  
    15     8    47 1   
    16     9    10 ar  
    17     9    48 1   
    18    10    49 1   
    19    11    12 1   
    20    11    50 1   
    21    12    13 1   
    22    12    15 1   
    23    12    51 1   
    24    13    14 2   
    25    13    30 1   
    26    15    16 1   
    27    15    52 1   
    28    15    53 1   
    29    16    17 ar  
    30    16    18 ar  
    31    17    19 ar  
    32    17    54 1   
    33    18    20 ar  
    34    18    55 1   
    35    19    21 ar  
    36    19    56 1   
    37    20    21 ar  
    38    20    57 1   
    39    21    58 1   
    40    22    23 1   
    41    22    59 1   
    42    22    60 1   
    43    22    79 1   
    44    23    24 1   
    45    23    30 1   
    46    23    61 1   
    47    24    25 1   
    48    24    62 1   
    49    24    63 1   
    50    25    26 1   
    51    25    64 1   
    52    25    65 1   
    53    26    27 2   
    54    26    28 2   
    55    26    29 1   
    56    29    37 1   
    57    30    66 1   
    58    31    32 ar  
    59    31    36 ar  
    60    31    79 1   
    61    32    33 ar  
    62    32    69 1   
    63    33    34 ar  
    64    33    70 1   
    65    34    35 ar  
    66    34    71 1   
    67    35    36 ar  
    68    35    72 1   
    69    36    73 1   
    70    37    38 ar  
    71    37    42 ar  
    72    38    39 ar  
    73    38    74 1   
    74    39    40 ar  
    75    39    75 1   
    76    40    41 ar  
    77    40    76 1   
    78    41    42 ar  
    79    41    77 1   
    80    42    78 1   
    81    67    79 1   
    82    68    79 1   
@<TRIPOS>SUBSTRUCTURE
     1 VSC         1 TEMP              0 ****  ****    0 ROOT
