@<TRIPOS>MOLECULE
VSC
   79    82     1     0     0
SMALL
abcg2


@<TRIPOS>ATOM
      1 C22         -3.3550    -0.2100     0.2940 c          1 VSC       0.644100
      2 O23         -3.6870     0.1340     1.4080 o          1 VSC      -0.540000
      3 O24         -4.2080    -0.6390    -0.6420 os         1 VSC      -0.455100
      4 C25         -5.5750    -0.7930    -0.2500 c3         1 VSC       0.230900
      5 C26         -6.2790    -1.4860    -1.3760 ca         1 VSC      -0.099300
      6 C31         -7.2360    -0.8220    -2.1340 ca         1 VSC      -0.086500
      7 C30         -7.8880    -1.4710    -3.1770 ca         1 VSC      -0.114500
      8 C29         -7.5780    -2.7900    -3.4730 ca         1 VSC      -0.099000
      9 C28         -6.6180    -3.4610    -2.7220 ca         1 VSC      -0.114500
     10 C27         -5.9750    -2.8120    -1.6800 ca         1 VSC      -0.086500
     11 N21         -2.0960    -0.1890    -0.1910 ns         1 VSC      -0.482900
     12 C13         -0.9530    -0.0290     0.6650 c3         1 VSC       0.043700
     13 C11          0.1290     0.7310    -0.0920 c          1 VSC       0.595100
     14 O12          0.2780     0.5760    -1.2940 o          1 VSC      -0.604100
     15 C14         -0.3680    -1.3910     1.1070 c3         1 VSC      -0.052100
     16 C15         -1.4190    -2.2690     1.7210 ca         1 VSC      -0.090300
     17 C16         -2.1530    -3.1560     0.9360 ca         1 VSC      -0.096500
     18 C20         -1.7280    -2.1640     3.0740 ca         1 VSC      -0.096500
     19 C17         -3.1800    -3.9100     1.4880 ca         1 VSC      -0.106500
     20 C19         -2.7480    -2.9200     3.6310 ca         1 VSC      -0.106500
     21 C18         -3.4830    -3.7920     2.8370 ca         1 VSC      -0.102000
     22 C1           2.0810     3.6550     0.6590 c3         1 VSC      -0.089400
     23 C9           2.0900     2.2040     0.1900 c3         1 VSC       0.112700
     24 C32          3.3820     1.5030     0.6200 c3         1 VSC      -0.065400
     25 C33          3.3630     0.0350     0.2130 c3         1 VSC      -0.344400
     26 S34          4.9570    -0.7190     0.4630 s6         1 VSC       1.313700
     27 O37          5.8980    -0.2050    -0.5100 o          1 VSC      -0.521500
     28 O36          5.2970    -0.7180     1.8670 o          1 VSC      -0.521500
     29 O35          4.6610    -2.2880     0.1470 os         1 VSC      -0.439800
     30 N10          0.9200     1.4980     0.6750 ns         1 VSC      -0.500900
     31 C3           0.9180     5.8750     0.6130 ca         1 VSC      -0.083300
     32 C4           1.6410     6.8280    -0.1010 ca         1 VSC      -0.106500
     33 C5           1.7230     8.1410     0.3430 ca         1 VSC      -0.108000
     34 C6           1.0800     8.5230     1.5150 ca         1 VSC      -0.110000
     35 C7           0.3560     7.5820     2.2350 ca         1 VSC      -0.108000
     36 C8           0.2770     6.2690     1.7850 ca         1 VSC      -0.106500
     37 C36          4.4670    -2.6950    -1.1670 ca         1 VSC       0.102100
     38 C37          5.5610    -2.9480    -1.9770 ca         1 VSC      -0.109500
     39 C38          5.3450    -3.4040    -3.2700 ca         1 VSC      -0.094000
     40 C39          4.0520    -3.5990    -3.7400 ca         1 VSC      -0.103000
     41 C40          2.9680    -3.3450    -2.9120 ca         1 VSC      -0.094000
     42 C41          3.1700    -2.8900    -1.6160 ca         1 VSC      -0.109500
     43 H251        -5.6320    -1.3870     0.6650 h1         1 VSC       0.057200
     44 H252        -6.0270     0.1810    -0.0480 h1         1 VSC       0.057200
     45 H311        -7.4780     0.2090    -1.9080 ha         1 VSC       0.114000
     46 H301        -8.6330    -0.9430    -3.7560 ha         1 VSC       0.114000
     47 H291        -8.0820    -3.2990    -4.2850 ha         1 VSC       0.113000
     48 H281        -6.3750    -4.4910    -2.9480 ha         1 VSC       0.114000
     49 H271        -5.2330    -3.3430    -1.0940 ha         1 VSC       0.114000
     50 H21         -1.9290    -0.5530    -1.1170 hn         1 VSC       0.341500
     51 H131        -1.2640     0.5290     1.5500 h1         1 VSC       0.093700
     52 H141         0.0740    -1.8830     0.2370 hc         1 VSC       0.055200
     53 H142         0.4400    -1.2140     1.8200 hc         1 VSC       0.055200
     54 H161        -1.9180    -3.2630    -0.1160 ha         1 VSC       0.110000
     55 H201        -1.1670    -1.4780     3.6990 ha         1 VSC       0.110000
     56 H171        -3.7410    -4.5930     0.8620 ha         1 VSC       0.113000
     57 H191        -2.9730    -2.8270     4.6860 ha         1 VSC       0.113000
     58 H181        -4.2830    -4.3790     3.2700 ha         1 VSC       0.114000
     59 H11          2.1190     3.6920     1.7520 hc         1 VSC       0.051700
     60 H12          2.9990     4.1310     0.3040 hc         1 VSC       0.051700
     61 H91          2.0390     2.1880    -0.9010 h1         1 VSC       0.086700
     62 H321         4.2170     2.0210     0.1430 hc         1 VSC       0.063700
     63 H322         3.5160     1.5900     1.7000 hc         1 VSC       0.063700
     64 H331         2.6560    -0.5380     0.8140 h1         1 VSC       0.107700
     65 H332         3.1140    -0.0830    -0.8440 h1         1 VSC       0.107700
     66 H10          0.7060     1.5740     1.6580 hn         1 VSC       0.316500
     67 H21A         0.8430     4.3980    -0.9360 hc         1 VSC       0.053700
     68 H22         -0.0480     3.9740     0.5140 hc         1 VSC       0.053700
     69 H41          2.1420     6.5410    -1.0180 ha         1 VSC       0.110500
     70 H51          2.2880     8.8670    -0.2260 ha         1 VSC       0.113000
     71 H61          1.1410     9.5460     1.8610 ha         1 VSC       0.113000
     72 H71         -0.1500     7.8690     3.1470 ha         1 VSC       0.113000
     73 H81         -0.2960     5.5440     2.3510 ha         1 VSC       0.110500
     74 H371         6.5670    -2.8060    -1.6040 ha         1 VSC       0.132000
     75 H381         6.1930    -3.6070    -3.9100 ha         1 VSC       0.123000
     76 H391         3.8900    -3.9550    -4.7490 ha         1 VSC       0.121000
     77 H401         1.9590    -3.5010    -3.2690 ha         1 VSC       0.123000
     78 H411         2.3280    -2.7070    -0.9600 ha         1 VSC       0.132000
     79 C2           0.8720     4.4430     0.1560 c3         1 VSC      -0.029100
@<TRIPOS>BOND
     1     1     2 2   
     2     1     3 1   
     3     1    11 1   
     4     3     4 1   
     5     4     5 1   
     6     4    43 1   
     7     4    44 1   
     8     5     6 ar  
     9     5    10 ar  
    10     6     7 ar  
    11     6    45 1   
    12     7     8 ar  
    13     7    46 1   
    14     8     9 ar  
    15     8    47 1   
    16     9    10 ar  
    17     9    48 1   
    18    10    49 1   
    19    11    12 1   
    20    11    50 1   
    21    12    13 1   
    22    12    15 1   
    23    12    51 1   
    24    13    14 2   
    25    13    30 1   
    26    15    16 1   
    27    15    52 1   
    28    15    53 1   
    29    16    17 ar  
    30    16    18 ar  
    31    17    19 ar  
    32    17    54 1   
    33    18    20 ar  
    34    18    55 1   
    35    19    21 ar  
    36    19    56 1   
    37    20    21 ar  
    38    20    57 1   
    39    21    58 1   
    40    22    23 1   
    41    22    59 1   
    42    22    60 1   
    43    22    79 1   
    44    23    24 1   
    45    23    30 1   
    46    23    61 1   
    47    24    25 1   
    48    24    62 1   
    49    24    63 1   
    50    25    26 1   
    51    25    64 1   
    52    25    65 1   
    53    26    27 2   
    54    26    28 2   
    55    26    29 1   
    56    29    37 1   
    57    30    66 1   
    58    31    32 ar  
    59    31    36 ar  
    60    31    79 1   
    61    32    33 ar  
    62    32    69 1   
    63    33    34 ar  
    64    33    70 1   
    65    34    35 ar  
    66    34    71 1   
    67    35    36 ar  
    68    35    72 1   
    69    36    73 1   
    70    37    38 ar  
    71    37    42 ar  
    72    38    39 ar  
    73    38    74 1   
    74    39    40 ar  
    75    39    75 1   
    76    40    41 ar  
    77    40    76 1   
    78    41    42 ar  
    79    41    77 1   
    80    42    78 1   
    81    67    79 1   
    82    68    79 1   
@<TRIPOS>SUBSTRUCTURE
     1 VSC         1 TEMP              0 ****  ****    0 ROOT
