@<TRIPOS>MOLECULE
VSD
   58    57     1     0     0
SMALL
No Charge or Current Charge


@<TRIPOS>ATOM
      1 C15        202.1210   210.1450   214.0500 c3         1 VSD      -0.182400
      2 C16        202.2370   209.0740   215.1520 c          1 VSD       0.560100
      3 C10        206.7660   208.0670   209.9490 c3         1 VSD      -0.072400
      4 C11        206.2200   208.5960   211.2970 c3         1 VSD      -0.072400
      5 C12        204.7060   208.9120   211.2960 c3         1 VSD      -0.075400
      6 C13        204.1830   209.3510   212.6810 c3         1 VSD      -0.077400
      7 C14        202.6710   209.6700   212.6800 c3         1 VSD      -0.063400
      8 C01        209.0390   211.0340   198.9440 c3         1 VSD      -0.088100
      9 C02        209.0920   210.0170   200.1000 c3         1 VSD      -0.075400
     10 C03        208.4570   210.5500   201.4040 c3         1 VSD      -0.075400
     11 C04        208.5100   209.5300   202.5630 c3         1 VSD      -0.074400
     12 C05        207.8750   210.0630   203.8660 c3         1 VSD      -0.074400
     13 C06        207.9290   209.0440   205.0250 c3         1 VSD      -0.074400
     14 C07        207.2940   209.5770   206.3280 c3         1 VSD      -0.074400
     15 C08        207.3480   208.5580   207.4870 c3         1 VSD      -0.075400
     16 C09        206.7140   209.0910   208.7910 c3         1 VSD      -0.075400
     17 C18        202.9580   209.5180   216.4770 c3         1 VSD       0.065500
     18 C19        204.4970   209.6050   216.2580 c3         1 VSD       0.163600
     19 N21        202.6290   208.7270   217.7230 n8         1 VSD      -0.983200
     20 O17        201.5730   208.0440   215.0850 o          1 VSD      -0.487100
     21 O20        205.1490   210.0850   217.4490 oh         1 VSD      -0.669000
     22 H1         202.6520   211.0560   214.3500 hc         1 VSD       0.059200
     23 H2         201.0580   210.3840   213.9200 hc         1 VSD       0.059200
     24 H3         206.2110   207.1650   209.6630 hc         1 VSD       0.038200
     25 H4         207.8090   207.7580   210.0990 hc         1 VSD       0.038200
     26 H5         206.4210   207.8410   212.0680 hc         1 VSD       0.036700
     27 H6         206.7800   209.4940   211.5860 hc         1 VSD       0.036700
     28 H7         204.4980   209.7090   210.5720 hc         1 VSD       0.040200
     29 H8         204.3890   208.5540   213.4050 hc         1 VSD       0.037200
     30 H9         202.4730   210.4520   211.9350 hc         1 VSD       0.050200
     31 H10        202.1130   208.7820   212.3550 hc         1 VSD       0.050200
     32 H11        209.5010   210.6120   198.0430 hc         1 VSD       0.031367
     33 H12        208.0020   211.2980   198.7070 hc         1 VSD       0.031367
     34 H13        209.5790   211.9510   199.2090 hc         1 VSD       0.031367
     35 H14        208.5750   209.1000   199.7920 hc         1 VSD       0.036700
     36 H15        210.1380   209.7470   200.2900 hc         1 VSD       0.036700
     37 H16        208.9750   211.4680   201.7070 hc         1 VSD       0.036700
     38 H17        207.4120   210.8210   201.2100 hc         1 VSD       0.036700
     39 H18        207.9920   208.6120   202.2590 hc         1 VSD       0.036700
     40 H19        208.3930   210.9810   204.1700 hc         1 VSD       0.036700
     41 H20        207.4110   208.1260   204.7210 hc         1 VSD       0.037200
     42 H21        207.8120   210.4950   206.6320 hc         1 VSD       0.036700
     43 H22        206.8300   207.6390   207.1840 hc         1 VSD       0.037200
     44 H23        207.2340   210.0080   209.0960 hc         1 VSD       0.037700
     45 H24        202.6170   210.5440   216.6690 h1         1 VSD       0.037700
     46 H25        204.8790   208.6110   215.9890 h1         1 VSD       0.034200
     47 H26        204.7070   210.2810   215.4190 h1         1 VSD       0.034200
     48 H27        203.2140   209.0910   218.4870 hn         1 VSD       0.407500
     49 H28        201.6690   208.9370   218.0250 hn         1 VSD       0.407500
     50 H30        206.1160   210.0840   217.2680 ho         1 VSD       0.450000
     51 H29        209.5560   209.2590   202.7560 hc         1 VSD       0.036700
     52 H31        206.8300   210.3340   203.6720 hc         1 VSD       0.036700
     53 H32        208.9750   208.7730   205.2180 hc         1 VSD       0.037200
     54 H33        206.2490   209.8480   206.1350 hc         1 VSD       0.036700
     55 H34        208.3940   208.2870   207.6800 hc         1 VSD       0.037200
     56 H35        205.6710   209.3640   208.5880 hc         1 VSD       0.037700
     57 H36        204.1520   208.0240   210.9660 hc         1 VSD       0.040200
     58 H37        204.7390   210.2390   213.0070 hc         1 VSD       0.037200
@<TRIPOS>BOND
     1     1     2 1   
     2     1     7 1   
     3     1    22 1   
     4     1    23 1   
     5     2    17 1   
     6     2    20 2   
     7     3     4 1   
     8     3    16 1   
     9     3    24 1   
    10     3    25 1   
    11     4     5 1   
    12     4    26 1   
    13     4    27 1   
    14     5     6 1   
    15     5    28 1   
    16     5    57 1   
    17     6     7 1   
    18     6    29 1   
    19     6    58 1   
    20     7    30 1   
    21     7    31 1   
    22     8     9 1   
    23     8    32 1   
    24     8    33 1   
    25     8    34 1   
    26     9    10 1   
    27     9    35 1   
    28     9    36 1   
    29    10    11 1   
    30    10    37 1   
    31    10    38 1   
    32    11    12 1   
    33    11    39 1   
    34    11    51 1   
    35    12    13 1   
    36    12    40 1   
    37    12    52 1   
    38    13    14 1   
    39    13    41 1   
    40    13    53 1   
    41    14    15 1   
    42    14    42 1   
    43    14    54 1   
    44    15    16 1   
    45    15    43 1   
    46    15    55 1   
    47    16    44 1   
    48    16    56 1   
    49    17    18 1   
    50    17    19 1   
    51    17    45 1   
    52    18    21 1   
    53    18    46 1   
    54    18    47 1   
    55    19    48 1   
    56    19    49 1   
    57    21    50 1   
@<TRIPOS>SUBSTRUCTURE
     1 VSD         1 TEMP              0 ****  ****    0 ROOT
