@<TRIPOS>MOLECULE
VSD
   58    57     1     0     0
SMALL
bcc


@<TRIPOS>ATOM
      1 C15        202.4600   210.1650   214.0280 c3         1 VSD      -0.182400
      2 C16        202.4650   209.1060   215.1060 c          1 VSD       0.560100
      3 C10        206.8590   208.0400   209.8620 c3         1 VSD      -0.072400
      4 C11        206.3630   208.5610   211.2080 c3         1 VSD      -0.072400
      5 C12        204.8750   208.8900   211.2440 c3         1 VSD      -0.075400
      6 C13        204.4050   209.3470   212.6190 c3         1 VSD      -0.077400
      7 C14        202.9180   209.6760   212.6610 c3         1 VSD      -0.063400
      8 C01        208.9310   211.0540   198.9900 c3         1 VSD      -0.088100
      9 C02        208.9170   210.0050   200.0920 c3         1 VSD      -0.075400
     10 C03        208.4000   210.5460   201.4190 c3         1 VSD      -0.075400
     11 C04        208.3920   209.5080   202.5330 c3         1 VSD      -0.074400
     12 C05        207.8730   210.0520   203.8580 c3         1 VSD      -0.074400
     13 C06        207.8740   209.0180   204.9760 c3         1 VSD      -0.074400
     14 C07        207.3450   209.5600   206.2970 c3         1 VSD      -0.074400
     15 C08        207.3620   208.5310   207.4210 c3         1 VSD      -0.075400
     16 C09        206.8150   209.0680   208.7370 c3         1 VSD      -0.075400
     17 C18        202.7740   209.5930   216.5120 c3         1 VSD       0.065500
     18 C19        204.2910   209.7440   216.6290 c3         1 VSD       0.140400
     19 N21        202.3010   208.6620   217.5110 n8         1 VSD      -0.872800
     20 O17        202.2130   207.9480   214.8690 o          1 VSD      -0.487100
     21 O20        204.5730   210.3550   217.8660 oh         1 VSD      -0.606800
     22 H1         203.0460   211.0310   214.3450 hc         1 VSD       0.059200
     23 H2         201.4250   210.5240   213.9780 hc         1 VSD       0.059200
     24 H3         206.2720   207.1610   209.5740 hc         1 VSD       0.038200
     25 H4         207.8900   207.6900   209.9750 hc         1 VSD       0.038200
     26 H5         206.5750   207.8140   211.9800 hc         1 VSD       0.036700
     27 H6         206.9370   209.4520   211.4860 hc         1 VSD       0.036700
     28 H7         204.6420   209.6670   210.5100 hc         1 VSD       0.040200
     29 H8         204.6360   208.5690   213.3550 hc         1 VSD       0.037200
     30 H9         202.7000   210.4520   211.9230 hc         1 VSD       0.050200
     31 H10        202.3330   208.8020   212.3640 hc         1 VSD       0.050200
     32 H11        209.3080   210.6470   198.0510 hc         1 VSD       0.031367
     33 H12        207.9280   211.4430   198.8020 hc         1 VSD       0.031367
     34 H13        209.5650   211.9000   199.2610 hc         1 VSD       0.031367
     35 H14        208.2990   209.1550   199.7830 hc         1 VSD       0.036700
     36 H15        209.9270   209.6080   200.2310 hc         1 VSD       0.036700
     37 H16        209.0140   211.4010   201.7240 hc         1 VSD       0.036700
     38 H17        207.3860   210.9370   201.2800 hc         1 VSD       0.036700
     39 H18        207.7800   208.6520   202.2270 hc         1 VSD       0.036700
     40 H19        208.4800   210.9130   204.1600 hc         1 VSD       0.036700
     41 H20        207.2740   208.1530   204.6720 hc         1 VSD       0.037200
     42 H21        207.9370   210.4320   206.5960 hc         1 VSD       0.036700
     43 H22        206.7810   207.6530   207.1180 hc         1 VSD       0.037200
     44 H23        207.3890   209.9520   209.0370 hc         1 VSD       0.037700
     45 H24        202.3420   210.6050   216.5980 h1         1 VSD       0.037700
     46 H25        204.7430   208.7470   216.5540 h1         1 VSD       0.034200
     47 H26        204.6750   210.3400   215.7920 h1         1 VSD       0.034200
     48 H27        202.5660   208.9970   218.4270 hn         1 VSD       0.352300
     49 H28        201.2890   208.6300   217.5060 hn         1 VSD       0.352300
     50 H30        205.5180   210.2870   218.0290 ho         1 VSD       0.411000
     51 H29        209.4070   209.1190   202.6730 hc         1 VSD       0.036700
     52 H31        206.8550   210.4340   203.7190 hc         1 VSD       0.036700
     53 H32        208.8940   208.6430   205.1200 hc         1 VSD       0.037200
     54 H33        206.3210   209.9240   206.1550 hc         1 VSD       0.036700
     55 H34        208.3880   208.1770   207.5710 hc         1 VSD       0.037200
     56 H35        205.7880   209.4130   208.5800 hc         1 VSD       0.037700
     57 H36        204.3040   208.0050   210.9400 hc         1 VSD       0.040200
     58 H37        204.9770   210.2300   212.9230 hc         1 VSD       0.037200
@<TRIPOS>BOND
     1     1     2 1   
     2     1     7 1   
     3     1    22 1   
     4     1    23 1   
     5     2    17 1   
     6     2    20 2   
     7     3     4 1   
     8     3    16 1   
     9     3    24 1   
    10     3    25 1   
    11     4     5 1   
    12     4    26 1   
    13     4    27 1   
    14     5     6 1   
    15     5    28 1   
    16     5    57 1   
    17     6     7 1   
    18     6    29 1   
    19     6    58 1   
    20     7    30 1   
    21     7    31 1   
    22     8     9 1   
    23     8    32 1   
    24     8    33 1   
    25     8    34 1   
    26     9    10 1   
    27     9    35 1   
    28     9    36 1   
    29    10    11 1   
    30    10    37 1   
    31    10    38 1   
    32    11    12 1   
    33    11    39 1   
    34    11    51 1   
    35    12    13 1   
    36    12    40 1   
    37    12    52 1   
    38    13    14 1   
    39    13    41 1   
    40    13    53 1   
    41    14    15 1   
    42    14    42 1   
    43    14    54 1   
    44    15    16 1   
    45    15    43 1   
    46    15    55 1   
    47    16    44 1   
    48    16    56 1   
    49    17    18 1   
    50    17    19 1   
    51    17    45 1   
    52    18    21 1   
    53    18    46 1   
    54    18    47 1   
    55    19    48 1   
    56    19    49 1   
    57    21    50 1   
@<TRIPOS>SUBSTRUCTURE
     1 VSD         1 TEMP              0 ****  ****    0 ROOT
