@<TRIPOS>MOLECULE
VSE
   70    75     1     0     0
SMALL
No Charge or Current Charge


@<TRIPOS>ATOM
      1 NAK          3.2280     3.1530     0.1520 nv         1 VSE      -1.066900
      2 C6           1.8830     3.2530     0.0340 ca         1 VSE       0.426900
      3 C5           1.0170     2.1550     0.1090 ca         1 VSE      -0.243800
      4 CAI          1.2390     0.7480     0.3050 cc         1 VSE      -0.057400
      5 CAJ          2.4720    -0.0320     0.3460 ca         1 VSE      -0.044800
      6 CAL          2.6820    -0.9710     1.3750 ca         1 VSE      -0.082000
      7 CAM          3.8640    -1.7330     1.4110 ca         1 VSE      -0.154500
      8 CAN          4.8430    -1.5620     0.4200 ca         1 VSE       0.129100
      9 OBD          5.9830    -2.3330     0.4690 os         1 VSE      -0.255200
     10 CBE          7.2250    -1.8560     0.1140 ca         1 VSE       0.104100
     11 CBF          7.6240    -0.5450     0.4440 ca         1 VSE      -0.126500
     12 CBG          8.9040    -0.0880     0.0820 ca         1 VSE      -0.096000
     13 CBH          9.7880    -0.9410    -0.6010 ca         1 VSE      -0.117000
     14 CBI          9.3950    -2.2540    -0.9190 ca         1 VSE      -0.096000
     15 CBJ          8.1150    -2.7110    -0.5570 ca         1 VSE      -0.126500
     16 CAO          4.6280    -0.6440    -0.6260 ca         1 VSE      -0.154500
     17 CAP          3.4470     0.1180    -0.6610 ca         1 VSE      -0.082000
     18 CAH          0.0010     0.1320     0.3670 cd         1 VSE      -0.161100
     19 NAG         -0.9840     1.1340     0.2060 na         1 VSE      -0.176400
     20 C4          -0.3430     2.3610     0.0500 ca         1 VSE       0.148500
     21 N3          -0.8490     3.6020    -0.1110 nb         1 VSE      -0.234000
     22 C2           0.0550     4.6070    -0.1970 ca         1 VSE       0.178900
     23 N1           1.4030     4.4950    -0.1240 nb         1 VSE      -0.303000
     24 CAQ         -2.4530     0.9450     0.1810 c6         1 VSE       0.083300
     25 CAV         -2.9580     0.3480     1.5210 c6         1 VSE      -0.086400
     26 CAU         -4.4930     0.1390     1.4910 c6         1 VSE      -0.088900
     27 CAT         -4.9160    -0.7740     0.3030 c6         1 VSE       0.193500
     28 CAS         -4.4100    -0.1660    -1.0430 c6         1 VSE      -0.088900
     29 CAR         -2.8750     0.0520    -1.0160 c6         1 VSE      -0.086400
     30 NAW         -6.3810    -1.0850     0.3320 n3         1 VSE      -0.740600
     31 CAX         -7.2870     0.0920     0.1120 c6         1 VSE       0.174800
     32 CAY         -8.7970    -0.2980     0.2340 c6         1 VSE       0.163300
     33 NAZ         -9.1750    -1.4200    -0.6800 n3         1 VSE      -0.717600
     34 CBC        -10.6060    -1.7790    -0.5840 c3         1 VSE       0.153100
     35 CBA         -8.2690    -2.5890    -0.4580 c6         1 VSE       0.163300
     36 CBB         -6.7600    -2.2040    -0.5890 c6         1 VSE       0.174800
     37 H1           3.6040     2.2730     0.4920 hn         1 VSE       0.493000
     38 H2           3.7600     3.9940     0.3550 hn         1 VSE       0.493000
     39 H3           1.9320    -1.1040     2.1510 ha         1 VSE       0.121000
     40 H4           4.0220    -2.4540     2.2090 ha         1 VSE       0.128500
     41 H5           6.9490     0.1160     0.9820 ha         1 VSE       0.127000
     42 H6           9.2110     0.9250     0.3340 ha         1 VSE       0.116000
     43 H7          10.7780    -0.5880    -0.8800 ha         1 VSE       0.117000
     44 H8          10.0810    -2.9150    -1.4440 ha         1 VSE       0.116000
     45 H9           7.8110    -3.7260    -0.8010 ha         1 VSE       0.127000
     46 H10          5.3670    -0.5260    -1.4140 ha         1 VSE       0.128500
     47 H11          3.2800     0.8160    -1.4780 ha         1 VSE       0.121000
     48 H12         -0.2440    -0.9190     0.4810 h4         1 VSE       0.219000
     49 H13         -0.3450     5.6120    -0.3270 h5         1 VSE       0.043100
     50 H14         -2.9250     1.9300     0.0510 h1         1 VSE       0.094700
     51 H15         -2.4620    -0.6120     1.7210 hc         1 VSE       0.050950
     52 H16         -2.6920     1.0170     2.3500 hc         1 VSE       0.050950
     53 H17         -4.8220    -0.3090     2.4380 hc         1 VSE       0.050950
     54 H18         -4.9820     1.1190     1.4190 hc         1 VSE       0.050950
     55 H19         -4.3750    -1.7230     0.4430 h1         1 VSE       0.051700
     56 H20         -4.6580    -0.8250    -1.8840 hc         1 VSE       0.050950
     57 H21         -4.9040     0.7950    -1.2390 hc         1 VSE       0.050950
     58 H22         -2.5510     0.5160    -1.9580 hc         1 VSE       0.050950
     59 H23         -2.3690    -0.9220    -0.9580 hc         1 VSE       0.050950
     60 H25         -7.0860     0.8890     0.8410 h1         1 VSE       0.037450
     61 H26         -7.1280     0.5190    -0.8880 h1         1 VSE       0.037450
     62 H27         -9.0000    -0.5790     1.2780 h1         1 VSE       0.036950
     63 H28         -9.4070     0.5910     0.0170 h1         1 VSE       0.036950
     64 H30        -11.2390    -0.9080    -0.8030 h1         1 VSE       0.030033
     65 H31        -10.8570    -2.5690    -1.3050 h1         1 VSE       0.030033
     66 H32        -10.8530    -2.1400     0.4230 h1         1 VSE       0.030033
     67 H33         -8.4360    -3.0110     0.5440 h1         1 VSE       0.036950
     68 H34         -8.4920    -3.3850    -1.1840 h1         1 VSE       0.036950
     69 H35         -6.5720    -1.9250    -1.6350 h1         1 VSE       0.037450
     70 H36         -6.1520    -3.0960    -0.3770 h1         1 VSE       0.037450
@<TRIPOS>BOND
     1     1     2 1   
     2     1    37 1   
     3     1    38 1   
     4     2     3 ar  
     5     2    23 ar  
     6     3     4 1   
     7     3    20 ar  
     8     4     5 1   
     9     4    18 2   
    10     5     6 ar  
    11     5    17 ar  
    12     6     7 ar  
    13     6    39 1   
    14     7     8 ar  
    15     7    40 1   
    16     8     9 1   
    17     8    16 ar  
    18     9    10 1   
    19    10    11 ar  
    20    10    15 ar  
    21    11    12 ar  
    22    11    41 1   
    23    12    13 ar  
    24    12    42 1   
    25    13    14 ar  
    26    13    43 1   
    27    14    15 ar  
    28    14    44 1   
    29    15    45 1   
    30    16    17 ar  
    31    16    46 1   
    32    17    47 1   
    33    18    19 1   
    34    18    48 1   
    35    19    20 1   
    36    19    24 1   
    37    20    21 ar  
    38    21    22 ar  
    39    22    23 ar  
    40    22    49 1   
    41    24    25 1   
    42    24    29 1   
    43    24    50 1   
    44    25    26 1   
    45    25    51 1   
    46    25    52 1   
    47    26    27 1   
    48    26    53 1   
    49    26    54 1   
    50    27    28 1   
    51    27    30 1   
    52    27    55 1   
    53    28    29 1   
    54    28    56 1   
    55    28    57 1   
    56    29    58 1   
    57    29    59 1   
    58    30    31 1   
    59    30    36 1   
    60    31    32 1   
    61    31    60 1   
    62    31    61 1   
    63    32    33 1   
    64    32    62 1   
    65    32    63 1   
    66    33    34 1   
    67    33    35 1   
    68    34    64 1   
    69    34    65 1   
    70    34    66 1   
    71    35    36 1   
    72    35    67 1   
    73    35    68 1   
    74    36    69 1   
    75    36    70 1   
@<TRIPOS>SUBSTRUCTURE
     1 VSE         1 TEMP              0 ****  ****    0 ROOT
