@<TRIPOS>MOLECULE
VSE
   70    75     1     0     0
SMALL
abcg2


@<TRIPOS>ATOM
      1 NAK          3.1080     3.2950     0.4470 nv         1 VSE      -1.066900
      2 C6           1.7780     3.3030     0.2590 ca         1 VSE       0.426900
      3 C5           1.0020     2.1280     0.1700 ca         1 VSE      -0.243800
      4 CAI          1.2050     0.7110     0.2540 cc         1 VSE      -0.057400
      5 CAJ          2.4570    -0.0460     0.3460 ca         1 VSE      -0.044800
      6 CAL          2.5930    -1.0980     1.2550 ca         1 VSE      -0.082000
      7 CAM          3.7600    -1.8400     1.3280 ca         1 VSE      -0.154500
      8 CAN          4.8240    -1.5410     0.4850 ca         1 VSE       0.129100
      9 OBD          5.9270    -2.3350     0.5860 os         1 VSE      -0.255200
     10 CBE          7.1420    -1.8620     0.1610 ca         1 VSE       0.104100
     11 CBF          7.7180    -0.7470     0.7570 ca         1 VSE      -0.126500
     12 CBG          8.9730    -0.3270     0.3390 ca         1 VSE      -0.096000
     13 CBH          9.6490    -1.0150    -0.6620 ca         1 VSE      -0.117000
     14 CBI          9.0630    -2.1310    -1.2440 ca         1 VSE      -0.096000
     15 CBJ          7.8040    -2.5560    -0.8400 ca         1 VSE      -0.126500
     16 CAO          4.7120    -0.5030    -0.4320 ca         1 VSE      -0.154500
     17 CAP          3.5350     0.2280    -0.4960 ca         1 VSE      -0.082000
     18 CAH         -0.0450     0.1570     0.1870 cd         1 VSE      -0.161100
     19 NAG         -1.0000     1.1330     0.0520 na         1 VSE      -0.176400
     20 C4          -0.3780     2.3390     0.0420 ca         1 VSE       0.148500
     21 N3          -0.9830     3.5250    -0.0600 nb         1 VSE      -0.234000
     22 C2          -0.1390     4.5340    -0.0170 ca         1 VSE       0.178900
     23 N1           1.1810     4.4920     0.1430 nb         1 VSE      -0.303000
     24 CAQ         -2.4380     0.9210    -0.0140 c6         1 VSE       0.083300
     25 CAV         -2.9900     0.4700     1.3370 c6         1 VSE      -0.086400
     26 CAU         -4.5010     0.2760     1.2660 c6         1 VSE      -0.088900
     27 CAT         -4.8880    -0.7140     0.1680 c6         1 VSE       0.193500
     28 CAS         -4.3270    -0.2450    -1.1810 c6         1 VSE      -0.088900
     29 CAR         -2.8130    -0.0650    -1.1160 c6         1 VSE      -0.086400
     30 NAW         -6.3160    -0.9940     0.1900 n3         1 VSE      -0.740600
     31 CAX         -7.1790     0.0750    -0.2720 c6         1 VSE       0.174800
     32 CAY         -8.6220    -0.2470     0.0670 c6         1 VSE       0.163300
     33 NAZ         -9.0200    -1.5000    -0.5430 n3         1 VSE      -0.717600
     34 CBC        -10.4010    -1.8160    -0.2660 c3         1 VSE       0.153100
     35 CBA         -8.1350    -2.5700    -0.1270 c6         1 VSE       0.163300
     36 CBB         -6.6900    -2.2370    -0.4530 c6         1 VSE       0.174800
     37 H1           3.5760     2.4590     0.7510 hn         1 VSE       0.493000
     38 H2           3.5630     4.1670     0.6580 hn         1 VSE       0.493000
     39 H3           1.7800    -1.3290     1.9310 ha         1 VSE       0.121000
     40 H4           3.8490    -2.6470     2.0430 ha         1 VSE       0.128500
     41 H5           7.1970    -0.2140     1.5430 ha         1 VSE       0.127000
     42 H6           9.4250     0.5380     0.8040 ha         1 VSE       0.116000
     43 H7          10.6280    -0.6860    -0.9810 ha         1 VSE       0.117000
     44 H8           9.5840    -2.6730    -2.0220 ha         1 VSE       0.116000
     45 H9           7.3410    -3.4230    -1.2930 ha         1 VSE       0.127000
     46 H10          5.5210    -0.2660    -1.1110 ha         1 VSE       0.128500
     47 H11          3.4540     1.0140    -1.2360 ha         1 VSE       0.121000
     48 H12         -0.3180    -0.8870     0.1990 h4         1 VSE       0.219000
     49 H13         -0.5680     5.5260    -0.1100 h5         1 VSE       0.043100
     50 H14         -2.8680     1.8950    -0.2600 h1         1 VSE       0.094700
     51 H15         -2.5070    -0.4680     1.6300 hc         1 VSE       0.050950
     52 H16         -2.7420     1.2090     2.1030 hc         1 VSE       0.050950
     53 H17         -4.8770    -0.0820     2.2270 hc         1 VSE       0.050950
     54 H18         -4.9720     1.2480     1.0850 hc         1 VSE       0.050950
     55 H19         -4.3970    -1.6660     0.4120 h1         1 VSE       0.051700
     56 H20         -4.5690    -0.9640    -1.9680 hc         1 VSE       0.050950
     57 H21         -4.7920     0.7040    -1.4660 hc         1 VSE       0.050950
     58 H22         -2.4290     0.2880    -2.0750 hc         1 VSE       0.050950
     59 H23         -2.3440    -1.0360    -0.9220 hc         1 VSE       0.050950
     60 H25         -6.9010     1.0140     0.2100 h1         1 VSE       0.037450
     61 H26         -7.1020     0.2350    -1.3600 h1         1 VSE       0.037450
     62 H27         -8.7370    -0.2730     1.1650 h1         1 VSE       0.036950
     63 H28         -9.2680     0.5520    -0.3060 h1         1 VSE       0.036950
     64 H30        -11.0490    -1.0100    -0.6160 h1         1 VSE       0.030033
     65 H31        -10.6910    -2.7280    -0.7920 h1         1 VSE       0.030033
     66 H32        -10.6050    -1.9690     0.8060 h1         1 VSE       0.030033
     67 H33         -8.2200    -2.7670     0.9570 h1         1 VSE       0.036950
     68 H34         -8.4220    -3.4900    -0.6440 h1         1 VSE       0.036950
     69 H35         -6.5700    -2.2010    -1.5480 h1         1 VSE       0.037450
     70 H36         -6.0510    -3.0420    -0.0820 h1         1 VSE       0.037450
@<TRIPOS>BOND
     1     1     2 1   
     2     1    37 1   
     3     1    38 1   
     4     2     3 ar  
     5     2    23 ar  
     6     3     4 1   
     7     3    20 ar  
     8     4     5 1   
     9     4    18 2   
    10     5     6 ar  
    11     5    17 ar  
    12     6     7 ar  
    13     6    39 1   
    14     7     8 ar  
    15     7    40 1   
    16     8     9 1   
    17     8    16 ar  
    18     9    10 1   
    19    10    11 ar  
    20    10    15 ar  
    21    11    12 ar  
    22    11    41 1   
    23    12    13 ar  
    24    12    42 1   
    25    13    14 ar  
    26    13    43 1   
    27    14    15 ar  
    28    14    44 1   
    29    15    45 1   
    30    16    17 ar  
    31    16    46 1   
    32    17    47 1   
    33    18    19 1   
    34    18    48 1   
    35    19    20 1   
    36    19    24 1   
    37    20    21 ar  
    38    21    22 ar  
    39    22    23 ar  
    40    22    49 1   
    41    24    25 1   
    42    24    29 1   
    43    24    50 1   
    44    25    26 1   
    45    25    51 1   
    46    25    52 1   
    47    26    27 1   
    48    26    53 1   
    49    26    54 1   
    50    27    28 1   
    51    27    30 1   
    52    27    55 1   
    53    28    29 1   
    54    28    56 1   
    55    28    57 1   
    56    29    58 1   
    57    29    59 1   
    58    30    31 1   
    59    30    36 1   
    60    31    32 1   
    61    31    60 1   
    62    31    61 1   
    63    32    33 1   
    64    32    62 1   
    65    32    63 1   
    66    33    34 1   
    67    33    35 1   
    68    34    64 1   
    69    34    65 1   
    70    34    66 1   
    71    35    36 1   
    72    35    67 1   
    73    35    68 1   
    74    36    69 1   
    75    36    70 1   
@<TRIPOS>SUBSTRUCTURE
     1 VSE         1 TEMP              0 ****  ****    0 ROOT
