@<TRIPOS>MOLECULE
VSF
   51    55     1     0     0
SMALL
No Charge or Current Charge


@<TRIPOS>ATOM
      1 NAK          0.5000     2.9350     0.1350 nv         1 VSF      -1.065900
      2 C6          -0.8180     2.7230    -0.0900 ca         1 VSF       0.427900
      3 N1          -1.5550     3.8420    -0.1400 nb         1 VSF      -0.301000
      4 C2          -2.8940     3.6760    -0.2300 ca         1 VSF       0.179900
      5 N3          -3.5630     2.5020    -0.2300 nb         1 VSF      -0.235000
      6 C4          -2.8040     1.3880    -0.1770 ca         1 VSF       0.149500
      7 C5          -1.4260     1.4550    -0.1490 ca         1 VSF      -0.241800
      8 NAG         -3.1600     0.0480    -0.0780 na         1 VSF      -0.175400
      9 CAQ         -4.5790    -0.3850    -0.0570 c6         1 VSF       0.086300
     10 CAV         -4.9480    -1.0190     1.3100 c6         1 VSF      -0.127900
     11 CAU         -6.4030    -1.5400     1.2830 c6         1 VSF       0.155100
     12 OAT         -6.5730    -2.4620     0.1840 os         1 VSF      -0.447000
     13 CAS         -6.3400    -1.8780    -1.1160 c6         1 VSF       0.155100
     14 CAR         -4.8810    -1.3760    -1.2110 c6         1 VSF      -0.127900
     15 CAH         -2.0310    -0.7810     0.0400 cc         1 VSF      -0.157100
     16 CAI         -0.9470     0.0740    -0.0830 cd         1 VSF      -0.062400
     17 CAJ          0.4580    -0.3840    -0.0310 ca         1 VSF      -0.023800
     18 CAL          0.7910    -1.5410     0.7080 ca         1 VSF      -0.098000
     19 CAM          2.1160    -2.0110     0.7490 ca         1 VSF      -0.127000
     20 CAN          3.1240    -1.3420     0.0390 ca         1 VSF       0.105100
     21 CAO          2.7960    -0.2210    -0.7450 ca         1 VSF      -0.127000
     22 CAP          1.4710     0.2490    -0.7830 ca         1 VSF      -0.098000
     23 OBD          4.4100    -1.8330     0.0810 os         1 VSF      -0.256200
     24 CBE          5.5220    -1.0220     0.0820 ca         1 VSF       0.128100
     25 CBJ          5.5420     0.1850     0.8110 ca         1 VSF      -0.152000
     26 CBI          6.6960     0.9880     0.8070 ca         1 VSF      -0.083000
     27 CBH          7.8310     0.5830     0.0830 ca         1 VSF      -0.136000
     28 CBG          7.8160    -0.6270    -0.6330 ca         1 VSF      -0.083000
     29 CBF          6.6620    -1.4300    -0.6290 ca         1 VSF      -0.152000
     30 H1           1.0460     2.1490     0.4720 hn         1 VSF       0.493500
     31 H2           0.7890     3.8590     0.4450 hn         1 VSF       0.493500
     32 H3          -3.4970     4.5820    -0.2740 h5         1 VSF       0.044100
     33 H4          -5.2200     0.4980    -0.2000 h1         1 VSF       0.094700
     34 H5          -4.2700    -1.8500     1.5430 hc         1 VSF       0.060950
     35 H6          -4.8310    -0.2790     2.1130 hc         1 VSF       0.060950
     36 H7          -6.6350    -2.0570     2.2250 h1         1 VSF       0.050200
     37 H8          -7.1090    -0.7030     1.1690 h1         1 VSF       0.050200
     38 H9          -6.5280    -2.6380    -1.8890 h1         1 VSF       0.050200
     39 H10         -7.0440    -1.0480    -1.2750 h1         1 VSF       0.050200
     40 H11         -4.7170    -0.8870    -2.1810 hc         1 VSF       0.060950
     41 H12         -4.2000    -2.2360    -1.1690 hc         1 VSF       0.060950
     42 H13         -2.0880    -1.8590     0.1470 h4         1 VSF       0.221000
     43 H14          0.0280    -2.0680     1.2740 ha         1 VSF       0.122500
     44 H15          2.3620    -2.8930     1.3350 ha         1 VSF       0.129500
     45 H16          3.5580     0.2730    -1.3420 ha         1 VSF       0.129500
     46 H17          1.2250     1.0720    -1.4470 ha         1 VSF       0.122500
     47 H18          4.6710     0.4970     1.3810 ha         1 VSF       0.125500
     48 H19          6.7120     1.9210     1.3660 ha         1 VSF       0.114000
     49 H20          8.7240     1.2040     0.0810 ha         1 VSF       0.116000
     50 H21          8.6980    -0.9420    -1.1890 ha         1 VSF       0.114000
     51 H22          6.6490    -2.3670    -1.1800 ha         1 VSF       0.125500
@<TRIPOS>BOND
     1     1     2 1   
     2     1    30 1   
     3     1    31 1   
     4     2     3 ar  
     5     2     7 ar  
     6     3     4 ar  
     7     4     5 ar  
     8     4    32 1   
     9     5     6 ar  
    10     6     7 ar  
    11     6     8 1   
    12     7    16 1   
    13     8     9 1   
    14     8    15 1   
    15     9    10 1   
    16     9    14 1   
    17     9    33 1   
    18    10    11 1   
    19    10    34 1   
    20    10    35 1   
    21    11    12 1   
    22    11    36 1   
    23    11    37 1   
    24    12    13 1   
    25    13    14 1   
    26    13    38 1   
    27    13    39 1   
    28    14    40 1   
    29    14    41 1   
    30    15    16 2   
    31    15    42 1   
    32    16    17 1   
    33    17    18 ar  
    34    17    22 ar  
    35    18    19 ar  
    36    18    43 1   
    37    19    20 ar  
    38    19    44 1   
    39    20    21 ar  
    40    20    23 1   
    41    21    22 ar  
    42    21    45 1   
    43    22    46 1   
    44    23    24 1   
    45    24    25 ar  
    46    24    29 ar  
    47    25    26 ar  
    48    25    47 1   
    49    26    27 ar  
    50    26    48 1   
    51    27    28 ar  
    52    27    49 1   
    53    28    29 ar  
    54    28    50 1   
    55    29    51 1   
@<TRIPOS>SUBSTRUCTURE
     1 VSF         1 TEMP              0 ****  ****    0 ROOT
