@<TRIPOS>MOLECULE
VSF
   51    55     1     0     0
SMALL
bcc


@<TRIPOS>ATOM
      1 NAK          0.4460     3.0810    -0.0690 nv         1 VSF      -0.955500
      2 C6          -0.8710     2.8160    -0.1150 ca         1 VSF       0.756200
      3 N1          -1.7040     3.8570    -0.1830 nb         1 VSF      -0.827000
      4 C2          -3.0150     3.6290    -0.2030 ca         1 VSF       0.705900
      5 N3          -3.6370     2.4700    -0.1430 nb         1 VSF      -0.761000
      6 C4          -2.7980     1.4340    -0.0900 ca         1 VSF       0.478800
      7 C5          -1.3980     1.5070    -0.1070 ca         1 VSF      -0.372400
      8 NAG         -3.1590     0.1290     0.0030 na         1 VSF      -0.146100
      9 CAQ         -4.5190    -0.3780     0.0390 c6         1 VSF       0.057000
     10 CAV         -4.7900    -1.1760     1.3120 c6         1 VSF      -0.127900
     11 CAU         -6.2060    -1.7320     1.2730 c6         1 VSF       0.131900
     12 OAT         -6.4330    -2.5180     0.1240 os         1 VSF      -0.400600
     13 CAS         -6.2520    -1.7840    -1.0660 c6         1 VSF       0.131900
     14 CAR         -4.8390    -1.2310    -1.1850 c6         1 VSF      -0.127900
     15 CAH         -2.0190    -0.6330     0.0350 cc         1 VSF      -0.107100
     16 CAI         -0.9070     0.1610    -0.0340 cd         1 VSF      -0.062400
     17 CAJ          0.4730    -0.3320    -0.0580 ca         1 VSF      -0.023800
     18 CAL          0.8880    -1.3290     0.8250 ca         1 VSF      -0.116000
     19 CAM          2.1820    -1.8280     0.7900 ca         1 VSF      -0.145000
     20 CAN          3.0840    -1.3280    -0.1360 ca         1 VSF       0.105100
     21 CAO          2.6950    -0.3400    -1.0310 ca         1 VSF      -0.145000
     22 CAP          1.3980     0.1450    -0.9910 ca         1 VSF      -0.116000
     23 OBD          4.3410    -1.8700    -0.1850 os         1 VSF      -0.256200
     24 CBE          5.4280    -1.0620    -0.0070 ca         1 VSF       0.128100
     25 CBJ          5.3830     0.1100     0.7390 ca         1 VSF      -0.170000
     26 CBI          6.5440     0.8540     0.9060 ca         1 VSF      -0.101000
     27 CBH          7.7420     0.4380     0.3420 ca         1 VSF      -0.154000
     28 CBG          7.7730    -0.7390    -0.3970 ca         1 VSF      -0.101000
     29 CBF          6.6210    -1.4890    -0.5780 ca         1 VSF      -0.170000
     30 H1           1.1020     2.3680     0.1990 hn         1 VSF       0.438300
     31 H2           0.7330     4.0340     0.0790 hn         1 VSF       0.438300
     32 H3          -3.6440     4.5120    -0.2650 h5         1 VSF       0.044100
     33 H4          -5.1680     0.5010     0.0330 h1         1 VSF       0.094700
     34 H5          -4.0740    -1.9980     1.4000 hc         1 VSF       0.060950
     35 H6          -4.6740    -0.5400     2.1930 hc         1 VSF       0.060950
     36 H7          -6.3870    -2.3700     2.1390 h1         1 VSF       0.050200
     37 H8          -6.9260    -0.9020     1.3170 h1         1 VSF       0.050200
     38 H9          -6.4680    -2.4580    -1.8960 h1         1 VSF       0.050200
     39 H10         -6.9730    -0.9540    -1.1180 h1         1 VSF       0.050200
     40 H11         -4.7580    -0.6370    -2.0980 hc         1 VSF       0.060950
     41 H12         -4.1260    -2.0570    -1.2630 hc         1 VSF       0.060950
     42 H13         -2.0740    -1.7090     0.0810 h4         1 VSF       0.171000
     43 H14          0.1970    -1.7130     1.5650 ha         1 VSF       0.140500
     44 H15          2.4890    -2.5980     1.4860 ha         1 VSF       0.147500
     45 H16          3.3900     0.0420    -1.7680 ha         1 VSF       0.147500
     46 H17          1.0980     0.8880    -1.7200 ha         1 VSF       0.140500
     47 H18          4.4600     0.4470     1.1950 ha         1 VSF       0.143500
     48 H19          6.5060     1.7650     1.4880 ha         1 VSF       0.132000
     49 H20          8.6420     1.0230     0.4770 ha         1 VSF       0.134000
     50 H21          8.7000    -1.0750    -0.8430 ha         1 VSF       0.132000
     51 H22          6.6430    -2.4040    -1.1570 ha         1 VSF       0.143500
@<TRIPOS>BOND
     1     1     2 1   
     2     1    30 1   
     3     1    31 1   
     4     2     3 ar  
     5     2     7 ar  
     6     3     4 ar  
     7     4     5 ar  
     8     4    32 1   
     9     5     6 ar  
    10     6     7 ar  
    11     6     8 1   
    12     7    16 1   
    13     8     9 1   
    14     8    15 1   
    15     9    10 1   
    16     9    14 1   
    17     9    33 1   
    18    10    11 1   
    19    10    34 1   
    20    10    35 1   
    21    11    12 1   
    22    11    36 1   
    23    11    37 1   
    24    12    13 1   
    25    13    14 1   
    26    13    38 1   
    27    13    39 1   
    28    14    40 1   
    29    14    41 1   
    30    15    16 2   
    31    15    42 1   
    32    16    17 1   
    33    17    18 ar  
    34    17    22 ar  
    35    18    19 ar  
    36    18    43 1   
    37    19    20 ar  
    38    19    44 1   
    39    20    21 ar  
    40    20    23 1   
    41    21    22 ar  
    42    21    45 1   
    43    22    46 1   
    44    23    24 1   
    45    24    25 ar  
    46    24    29 ar  
    47    25    26 ar  
    48    25    47 1   
    49    26    27 ar  
    50    26    48 1   
    51    27    28 ar  
    52    27    49 1   
    53    28    29 ar  
    54    28    50 1   
    55    29    51 1   
@<TRIPOS>SUBSTRUCTURE
     1 VSF         1 TEMP              0 ****  ****    0 ROOT
