@<TRIPOS>MOLECULE
VSG
   55    59     1     0     0
SMALL
No Charge or Current Charge


@<TRIPOS>ATOM
      1 CAR         -4.0910     1.4490    -1.3050 c6         1 VSG      -0.089900
      2 CAS         -5.3430     2.3560    -1.3030 c6         1 VSG       0.165800
      3 NAT         -5.3210     3.3130    -0.1620 n3         1 VSG      -0.719600
      4 CAW         -6.4520     4.2650    -0.2050 c3         1 VSG       0.153100
      5 CAU         -5.2240     2.6100     1.1480 c6         1 VSG       0.165800
      6 CAV         -3.9670     1.7110     1.2140 c6         1 VSG      -0.089900
      7 CAQ         -3.9590     0.6990     0.0430 c6         1 VSG       0.083300
      8 NAG         -2.7380    -0.1440     0.0680 na         1 VSG      -0.174400
      9 CAH         -1.4080     0.3060    -0.0140 cc         1 VSG      -0.158100
     10 C4          -2.8060    -1.5310     0.1330 ca         1 VSG       0.148500
     11 N3          -3.8680    -2.3620     0.1460 nb         1 VSG      -0.235000
     12 C2          -3.5870    -3.6840     0.1210 ca         1 VSG       0.178900
     13 N1          -2.3590    -4.2470     0.0410 nb         1 VSG      -0.302000
     14 C6          -1.3170    -3.4030     0.0310 ca         1 VSG       0.426900
     15 NAK         -0.1210    -4.0000    -0.1860 nv         1 VSG      -1.065900
     16 C5          -1.5130    -2.0120     0.1170 ca         1 VSG      -0.240800
     17 CAI         -0.6370    -0.8400     0.0980 cd         1 VSG      -0.064400
     18 CAJ          0.8410    -0.8280     0.0750 ca         1 VSG      -0.026800
     19 CAP          1.6010    -1.7550     0.8200 ca         1 VSG      -0.094500
     20 CAO          3.0060    -1.7060     0.8110 ca         1 VSG      -0.133000
     21 CAL          1.5220     0.1860    -0.6330 ca         1 VSG      -0.094500
     22 CAM          2.9280     0.2350    -0.6460 ca         1 VSG      -0.133000
     23 CAN          3.6720    -0.7120     0.0800 ca         1 VSG       0.108100
     24 OAX          5.0490    -0.6920     0.0780 os         1 VSG      -0.256200
     25 CAY          5.7810     0.4730     0.1030 ca         1 VSG       0.122100
     26 CAZ          5.3750     1.5730     0.8860 ca         1 VSG      -0.146500
     27 CBA          6.1490     2.7470     0.9040 ca         1 VSG      -0.086000
     28 CBB          7.3330     2.8190     0.1490 ca         1 VSG      -0.132000
     29 CBC          7.7460     1.7180    -0.6210 ca         1 VSG      -0.086000
     30 CBD          6.9720     0.5440    -0.6400 ca         1 VSG      -0.146500
     31 H1          -4.1560     0.7300    -2.1310 hc         1 VSG       0.057700
     32 H2          -3.1990     2.0630    -1.4890 hc         1 VSG       0.057700
     33 H3          -5.3840     2.9020    -2.2570 h1         1 VSG       0.036450
     34 H4          -6.2440     1.7250    -1.2530 h1         1 VSG       0.036450
     35 H6          -7.4110     3.7390    -0.1040 h1         1 VSG       0.031700
     36 H7          -6.3730     4.9980     0.6090 h1         1 VSG       0.031700
     37 H8          -6.4600     4.8150    -1.1550 h1         1 VSG       0.031700
     38 H9          -5.1780     3.3400     1.9690 h1         1 VSG       0.036450
     39 H10         -6.1180     1.9910     1.3150 h1         1 VSG       0.036450
     40 H11         -3.0690     2.3430     1.1810 hc         1 VSG       0.057700
     41 H12         -3.9440     1.1770     2.1730 hc         1 VSG       0.057700
     42 H13         -4.8400     0.0510     0.1550 h1         1 VSG       0.092700
     43 H14         -1.1340     1.3530    -0.0900 h4         1 VSG       0.221000
     44 H15         -4.4360    -4.3650     0.1340 h5         1 VSG       0.043100
     45 H16         -0.1260    -4.9610    -0.5160 hn         1 VSG       0.494000
     46 H17          0.6470    -3.4140    -0.4970 hn         1 VSG       0.494000
     47 H18          1.1050    -2.4850     1.4540 ha         1 VSG       0.123000
     48 H19          3.5790    -2.4270     1.3890 ha         1 VSG       0.129000
     49 H20          0.9640     0.9250    -1.2020 ha         1 VSG       0.123000
     50 H21          3.4340     1.0060    -1.2220 ha         1 VSG       0.129000
     51 H22          4.4660     1.5180     1.4800 ha         1 VSG       0.127000
     52 H23          5.8340     3.5970     1.5060 ha         1 VSG       0.114500
     53 H24          7.9320     3.7270     0.1640 ha         1 VSG       0.116000
     54 H25          8.6650     1.7730    -1.2010 ha         1 VSG       0.114500
     55 H26          7.2900    -0.3090    -1.2330 ha         1 VSG       0.127000
@<TRIPOS>BOND
     1     1     2 1   
     2     1     7 1   
     3     1    31 1   
     4     1    32 1   
     5     2     3 1   
     6     2    33 1   
     7     2    34 1   
     8     3     4 1   
     9     3     5 1   
    10     4    35 1   
    11     4    36 1   
    12     4    37 1   
    13     5     6 1   
    14     5    38 1   
    15     5    39 1   
    16     6     7 1   
    17     6    40 1   
    18     6    41 1   
    19     7     8 1   
    20     7    42 1   
    21     8     9 1   
    22     8    10 1   
    23     9    17 2   
    24     9    43 1   
    25    10    11 ar  
    26    10    16 ar  
    27    11    12 ar  
    28    12    13 ar  
    29    12    44 1   
    30    13    14 ar  
    31    14    15 1   
    32    14    16 ar  
    33    15    45 1   
    34    15    46 1   
    35    16    17 1   
    36    17    18 1   
    37    18    19 ar  
    38    18    21 ar  
    39    19    20 ar  
    40    19    47 1   
    41    20    23 ar  
    42    20    48 1   
    43    21    22 ar  
    44    21    49 1   
    45    22    23 ar  
    46    22    50 1   
    47    23    24 1   
    48    24    25 1   
    49    25    26 ar  
    50    25    30 ar  
    51    26    27 ar  
    52    26    51 1   
    53    27    28 ar  
    54    27    52 1   
    55    28    29 ar  
    56    28    53 1   
    57    29    30 ar  
    58    29    54 1   
    59    30    55 1   
@<TRIPOS>SUBSTRUCTURE
     1 VSG         1 TEMP              0 ****  ****    0 ROOT
