@<TRIPOS>MOLECULE
VSG
   55    59     1     0     0
SMALL
bcc


@<TRIPOS>ATOM
      1 CAR         -3.9320     1.5540    -1.2960 c6         1 VSG      -0.089900
      2 CAS         -5.1320     2.4880    -1.2380 c6         1 VSG       0.165800
      3 NAT         -5.1000     3.3080    -0.0420 n3         1 VSG      -0.719600
      4 CAW         -6.1730     4.2750    -0.0370 c3         1 VSG       0.153100
      5 CAU         -5.1190     2.4880     1.1550 c6         1 VSG       0.165800
      6 CAV         -3.9190     1.5540     1.2000 c6         1 VSG      -0.089900
      7 CAQ         -3.8930     0.6790    -0.0480 c6         1 VSG       0.054000
      8 NAG         -2.7500    -0.2180    -0.0540 na         1 VSG      -0.145100
      9 CAH         -1.4330     0.1610    -0.0990 cc         1 VSG      -0.108100
     10 C4          -2.8010    -1.5720     0.0260 ca         1 VSG       0.476800
     11 N3          -3.9150    -2.3040     0.0840 nb         1 VSG      -0.761000
     12 C2          -3.6740    -3.5980     0.1290 ca         1 VSG       0.704900
     13 N1          -2.4950    -4.2130     0.0960 nb         1 VSG      -0.828000
     14 C6          -1.3850    -3.4740     0.0250 ca         1 VSG       0.755200
     15 NAK         -0.2110    -4.1270    -0.0260 nv         1 VSG      -0.955500
     16 C5          -1.4890    -2.0670     0.0250 ca         1 VSG      -0.371400
     17 CAI         -0.6130    -0.9340    -0.0490 cd         1 VSG      -0.064400
     18 CAJ          0.8520    -0.8770    -0.0410 ca         1 VSG      -0.026800
     19 CAP          1.6040    -1.5990     0.8870 ca         1 VSG      -0.112500
     20 CAO          2.9880    -1.5050     0.9180 ca         1 VSG      -0.151000
     21 CAL          1.5330    -0.0570    -0.9440 ca         1 VSG      -0.112500
     22 CAM          2.9140     0.0480    -0.9200 ca         1 VSG      -0.151000
     23 CAN          3.6400    -0.6800     0.0150 ca         1 VSG       0.108100
     24 OAX          5.0070    -0.6490     0.0370 os         1 VSG      -0.256200
     25 CAY          5.6470     0.5580     0.0880 ca         1 VSG       0.122100
     26 CAZ          5.1340     1.6440     0.7880 ca         1 VSG      -0.164500
     27 CBA          5.8610     2.8260     0.8360 ca         1 VSG      -0.104000
     28 CBB          7.0900     2.9290     0.1990 ca         1 VSG      -0.150000
     29 CBC          7.5940     1.8340    -0.4900 ca         1 VSG      -0.104000
     30 CBD          6.8760     0.6480    -0.5540 ca         1 VSG      -0.164500
     31 H1          -3.9880     0.9330    -2.1930 hc         1 VSG       0.057700
     32 H2          -3.0180     2.1510    -1.3630 hc         1 VSG       0.057700
     33 H3          -5.1270     3.1410    -2.1130 h1         1 VSG       0.036450
     34 H4          -6.0610     1.8920    -1.2920 h1         1 VSG       0.036450
     35 H6          -7.1740     3.8160    -0.0330 h1         1 VSG       0.031700
     36 H7          -6.0980     4.9120     0.8460 h1         1 VSG       0.031700
     37 H8          -6.1040     4.9140    -0.9180 h1         1 VSG       0.031700
     38 H9          -5.1060     3.1410     2.0300 h1         1 VSG       0.036450
     39 H10         -6.0480     1.8910     1.2180 h1         1 VSG       0.036450
     40 H11         -3.0020     2.1480     1.2560 hc         1 VSG       0.057700
     41 H12         -3.9670     0.9340     2.0970 hc         1 VSG       0.057700
     42 H13         -4.7770     0.0350    -0.0440 h1         1 VSG       0.092700
     43 H14         -1.1550     1.2020    -0.1350 h4         1 VSG       0.171000
     44 H15         -4.5400    -4.2490     0.1910 h5         1 VSG       0.043100
     45 H16         -0.2280    -5.1220    -0.1680 hn         1 VSG       0.438800
     46 H17          0.6300    -3.6490    -0.2990 hn         1 VSG       0.438800
     47 H18          1.1050    -2.2180     1.6230 ha         1 VSG       0.141000
     48 H19          3.5570    -2.0610     1.6520 ha         1 VSG       0.147000
     49 H20          0.9760     0.4930    -1.6910 ha         1 VSG       0.141000
     50 H21          3.4190     0.6830    -1.6370 ha         1 VSG       0.147000
     51 H22          4.1820     1.5760     1.2990 ha         1 VSG       0.145000
     52 H23          5.4600     3.6690     1.3830 ha         1 VSG       0.132500
     53 H24          7.6510     3.8540     0.2390 ha         1 VSG       0.134000
     54 H25          8.5510     1.9010    -0.9930 ha         1 VSG       0.132500
     55 H26          7.2640    -0.2040    -1.0960 ha         1 VSG       0.145000
@<TRIPOS>BOND
     1     1     2 1   
     2     1     7 1   
     3     1    31 1   
     4     1    32 1   
     5     2     3 1   
     6     2    33 1   
     7     2    34 1   
     8     3     4 1   
     9     3     5 1   
    10     4    35 1   
    11     4    36 1   
    12     4    37 1   
    13     5     6 1   
    14     5    38 1   
    15     5    39 1   
    16     6     7 1   
    17     6    40 1   
    18     6    41 1   
    19     7     8 1   
    20     7    42 1   
    21     8     9 1   
    22     8    10 1   
    23     9    17 2   
    24     9    43 1   
    25    10    11 ar  
    26    10    16 ar  
    27    11    12 ar  
    28    12    13 ar  
    29    12    44 1   
    30    13    14 ar  
    31    14    15 1   
    32    14    16 ar  
    33    15    45 1   
    34    15    46 1   
    35    16    17 1   
    36    17    18 1   
    37    18    19 ar  
    38    18    21 ar  
    39    19    20 ar  
    40    19    47 1   
    41    20    23 ar  
    42    20    48 1   
    43    21    22 ar  
    44    21    49 1   
    45    22    23 ar  
    46    22    50 1   
    47    23    24 1   
    48    24    25 1   
    49    25    26 ar  
    50    25    30 ar  
    51    26    27 ar  
    52    26    51 1   
    53    27    28 ar  
    54    27    52 1   
    55    28    29 ar  
    56    28    53 1   
    57    29    30 ar  
    58    29    54 1   
    59    30    55 1   
@<TRIPOS>SUBSTRUCTURE
     1 VSG         1 TEMP              0 ****  ****    0 ROOT
