@<TRIPOS>MOLECULE
VSH
   55    57     1     0     0
SMALL
abcg2


@<TRIPOS>ATOM
      1 O27         -4.0030    -1.6340     1.0200 o          1 VSH      -0.534000
      2 C12         -4.1920    -0.6630     0.3230 c          1 VSH       0.659100
      3 O29         -5.3740    -0.1710    -0.0300 os         1 VSH      -0.479100
      4 C20         -6.6350    -0.7260     0.4400 c3         1 VSH       0.227000
      5 C17         -6.7470    -0.6050     1.9540 c3         1 VSH      -0.109767
      6 C16         -7.6690     0.1680    -0.2340 c3         1 VSH      -0.109767
      7 C15         -6.8120    -2.1640    -0.0310 c3         1 VSH      -0.109767
      8 N26         -3.2170     0.1080    -0.2350 ns         1 VSH      -0.137000
      9 C7          -1.8370    -0.0450    -0.1310 ca         1 VSH      -0.016000
     10 C2          -1.1900    -1.1380     0.4330 ca         1 VSH      -0.119000
     11 C8          -1.0500     0.9970    -0.6670 ca         1 VSH       0.080100
     12 O28         -1.7400     2.0180    -1.2110 os         1 VSH      -0.363100
     13 C18         -1.0300     3.1220    -1.7380 c3         1 VSH       0.154900
     14 C3           0.3310     0.9260    -0.6250 ca         1 VSH      -0.170000
     15 C6           0.9710    -0.1680    -0.0340 ca         1 VSH      -0.097900
     16 C1           0.1970    -1.1950     0.4830 ca         1 VSH      -0.083000
     17 C9           2.4340    -0.2370     0.0020 cc         1 VSH       0.436500
     18 N23          3.0560    -1.3600    -0.2720 nd         1 VSH      -0.517100
     19 N24          4.3720    -1.1380    -0.1630 na         1 VSH      -0.017100
     20 C19          5.3290    -2.2000    -0.4410 c3         1 VSH       0.111300
     21 C14          5.0830    -3.3910     0.4720 c3         1 VSH      -0.104100
     22 C13          5.2920    -2.5780    -1.9150 c3         1 VSH      -0.104100
     23 C10          4.6260     0.1390     0.1720 ca         1 VSH       0.155500
     24 N21          5.8260     0.7000     0.3550 nb         1 VSH      -0.231000
     25 C5           3.3880     0.7750     0.3070 ca         1 VSH      -0.379900
     26 C11          3.4420     2.1160     0.7550 ca         1 VSH       0.452900
     27 N25          2.3570     2.8510     1.0180 nv         1 VSH      -1.067900
     28 N22          4.6360     2.6880     0.9240 nb         1 VSH      -0.313000
     29 C4           5.7340     1.9640     0.7080 ca         1 VSH       0.193900
     30 H1          -6.5580     0.4190     2.2810 hc         1 VSH       0.050589
     31 H2          -7.7610    -0.8660     2.2590 hc         1 VSH       0.050589
     32 H3          -6.0630    -1.2710     2.4770 hc         1 VSH       0.050589
     33 H4          -7.5410     1.2120     0.0540 hc         1 VSH       0.050589
     34 H5          -7.6040     0.0990    -1.3200 hc         1 VSH       0.050589
     35 H6          -8.6710    -0.1400     0.0630 hc         1 VSH       0.050589
     36 H7          -7.8360    -2.4810     0.1750 hc         1 VSH       0.050589
     37 H8          -6.6530    -2.2470    -1.1070 hc         1 VSH       0.050589
     38 H9          -6.1440    -2.8560     0.4750 hc         1 VSH       0.050589
     39 H10         -3.5300     0.9150    -0.7540 hn         1 VSH       0.181000
     40 H11         -1.7590    -1.9520     0.8480 ha         1 VSH       0.154000
     41 H12         -1.7770     3.8340    -2.0790 h1         1 VSH       0.042700
     42 H13         -0.4050     3.6000    -0.9780 h1         1 VSH       0.042700
     43 H14         -0.4020     2.8340    -2.5850 h1         1 VSH       0.042700
     44 H15          0.9260     1.7050    -1.0820 ha         1 VSH       0.127000
     45 H16          0.6720    -2.0510     0.9420 ha         1 VSH       0.131000
     46 H17          6.3040    -1.7700    -0.2070 h1         1 VSH       0.081700
     47 H18          4.1150    -3.8500     0.2710 hc         1 VSH       0.048533
     48 H19          5.8550    -4.1420     0.3070 hc         1 VSH       0.048533
     49 H20          5.1160    -3.0980     1.5210 hc         1 VSH       0.048533
     50 H21          5.5050    -1.7180    -2.5490 hc         1 VSH       0.048533
     51 H22          6.0430    -3.3410    -2.1200 hc         1 VSH       0.048533
     52 H23          4.3170    -2.9800    -2.1920 hc         1 VSH       0.048533
     53 H24          1.4480     2.4270     1.0910 hn         1 VSH       0.499500
     54 H25          2.4770     3.7530     1.4480 hn         1 VSH       0.499500
     55 H26          6.6710     2.4900     0.8570 h5         1 VSH       0.045100
@<TRIPOS>BOND
     1     1     2 2   
     2     2     3 1   
     3     2     8 1   
     4     3     4 1   
     5     4     5 1   
     6     4     6 1   
     7     4     7 1   
     8     5    30 1   
     9     5    31 1   
    10     5    32 1   
    11     6    33 1   
    12     6    34 1   
    13     6    35 1   
    14     7    36 1   
    15     7    37 1   
    16     7    38 1   
    17     8     9 1   
    18     8    39 1   
    19     9    10 ar  
    20     9    11 ar  
    21    10    16 ar  
    22    10    40 1   
    23    11    12 1   
    24    11    14 ar  
    25    12    13 1   
    26    13    41 1   
    27    13    42 1   
    28    13    43 1   
    29    14    15 ar  
    30    14    44 1   
    31    15    16 ar  
    32    15    17 1   
    33    16    45 1   
    34    17    18 2   
    35    17    25 1   
    36    18    19 1   
    37    19    20 1   
    38    19    23 1   
    39    20    21 1   
    40    20    22 1   
    41    20    46 1   
    42    21    47 1   
    43    21    48 1   
    44    21    49 1   
    45    22    50 1   
    46    22    51 1   
    47    22    52 1   
    48    23    24 ar  
    49    23    25 ar  
    50    24    29 ar  
    51    25    26 ar  
    52    26    27 1   
    53    26    28 ar  
    54    27    53 1   
    55    27    54 1   
    56    28    29 ar  
    57    29    55 1   
@<TRIPOS>SUBSTRUCTURE
     1 VSH         1 TEMP              0 ****  ****    0 ROOT
