@<TRIPOS>MOLECULE
VSH
   55    57     1     0     0
SMALL
No Charge or Current Charge


@<TRIPOS>ATOM
      1 O27         -4.1630    -1.6920     1.0910 o          1 VSH      -0.534000
      2 C12         -4.2820    -0.6720     0.4260 c          1 VSH       0.659100
      3 O29         -5.4670    -0.0730     0.0710 os         1 VSH      -0.479100
      4 C20         -6.7590    -0.6010     0.4550 c3         1 VSH       0.227000
      5 C17         -6.8880    -0.5940     2.0000 c3         1 VSH      -0.109767
      6 C16         -7.7700     0.3900    -0.1620 c3         1 VSH      -0.109767
      7 C15         -6.9530    -2.0080    -0.1660 c3         1 VSH      -0.109767
      8 N26         -3.2480     0.0810    -0.0940 ns         1 VSH      -0.137000
      9 C7          -1.8330    -0.0620    -0.0460 ca         1 VSH      -0.016000
     10 C2          -1.1900    -1.1500     0.5820 ca         1 VSH      -0.119000
     11 C8          -1.0500     0.9300    -0.6750 ca         1 VSH       0.080100
     12 O28         -1.7030     1.9770    -1.3040 os         1 VSH      -0.363100
     13 C18         -0.9970     3.0450    -1.9630 c3         1 VSH       0.154900
     14 C3           0.3600     0.8360    -0.6570 ca         1 VSH      -0.170000
     15 C6           1.0010    -0.2310     0.0060 ca         1 VSH      -0.097900
     16 C1           0.2120    -1.2360     0.5960 ca         1 VSH      -0.083000
     17 C9           2.4630    -0.3620    -0.0150 cc         1 VSH       0.436500
     18 N23          3.0740    -1.5070    -0.3440 nd         1 VSH      -0.517100
     19 N24          4.4230    -1.1630    -0.2870 na         1 VSH      -0.017100
     20 C19          5.5090    -2.1300    -0.5740 c3         1 VSH       0.111300
     21 C14          5.5700    -3.2540     0.4840 c3         1 VSH      -0.104100
     22 C13          5.4170    -2.6950    -2.0090 c3         1 VSH      -0.104100
     23 C10          4.6530     0.1440     0.1060 ca         1 VSH       0.155500
     24 N21          5.7770     0.8470     0.3460 nb         1 VSH      -0.231000
     25 C5           3.4120     0.6800     0.3030 ca         1 VSH      -0.379900
     26 C11          3.3010     1.9690     0.8170 ca         1 VSH       0.452900
     27 N25          2.1300     2.5510     1.1440 nv         1 VSH      -1.067900
     28 N22          4.3960     2.7010     1.0650 nb         1 VSH      -0.313000
     29 C4           5.5860     2.1070     0.8050 ca         1 VSH       0.193900
     30 H1          -6.5780     0.3740     2.4120 hc         1 VSH       0.050589
     31 H2          -7.9290    -0.7680     2.2960 hc         1 VSH       0.050589
     32 H3          -6.2840    -1.3790     2.4660 hc         1 VSH       0.050589
     33 H4          -7.6170     1.4010     0.2340 hc         1 VSH       0.050589
     34 H5          -7.6610     0.4300    -1.2520 hc         1 VSH       0.050589
     35 H6          -8.8000     0.0890     0.0660 hc         1 VSH       0.050589
     36 H7          -8.0000    -2.3210    -0.0800 hc         1 VSH       0.050589
     37 H8          -6.6870    -2.0050    -1.2300 hc         1 VSH       0.050589
     38 H9          -6.3470    -2.7670     0.3400 hc         1 VSH       0.050589
     39 H10         -3.5580     0.8940    -0.6090 hn         1 VSH       0.181000
     40 H11         -1.7550    -1.9430     1.0610 ha         1 VSH       0.154000
     41 H12         -1.7080     3.7670    -2.3840 h1         1 VSH       0.042700
     42 H13         -0.3480     3.5790    -1.2580 h1         1 VSH       0.042700
     43 H14         -0.3820     2.6570    -2.7850 h1         1 VSH       0.042700
     44 H15          0.9740     1.5750    -1.1640 ha         1 VSH       0.127000
     45 H16          0.6910    -2.0870     1.0790 ha         1 VSH       0.131000
     46 H17          6.4590    -1.5830    -0.5120 h1         1 VSH       0.081700
     47 H18          4.6560    -3.8590     0.4650 hc         1 VSH       0.048533
     48 H19          6.4250    -3.9140     0.2970 hc         1 VSH       0.048533
     49 H20          5.6810    -2.8290     1.4890 hc         1 VSH       0.048533
     50 H21          5.4130    -1.8800    -2.7430 hc         1 VSH       0.048533
     51 H22          6.2750    -3.3430    -2.2250 hc         1 VSH       0.048533
     52 H23          4.5000    -3.2830    -2.1420 hc         1 VSH       0.048533
     53 H24          1.2950     1.9750     1.1780 hn         1 VSH       0.499500
     54 H25          2.1490     3.3800     1.7310 hn         1 VSH       0.499500
     55 H26          6.4810     2.6960     1.0030 h5         1 VSH       0.045100
@<TRIPOS>BOND
     1     1     2 2   
     2     2     3 1   
     3     2     8 1   
     4     3     4 1   
     5     4     5 1   
     6     4     6 1   
     7     4     7 1   
     8     5    30 1   
     9     5    31 1   
    10     5    32 1   
    11     6    33 1   
    12     6    34 1   
    13     6    35 1   
    14     7    36 1   
    15     7    37 1   
    16     7    38 1   
    17     8     9 1   
    18     8    39 1   
    19     9    10 ar  
    20     9    11 ar  
    21    10    16 ar  
    22    10    40 1   
    23    11    12 1   
    24    11    14 ar  
    25    12    13 1   
    26    13    41 1   
    27    13    42 1   
    28    13    43 1   
    29    14    15 ar  
    30    14    44 1   
    31    15    16 ar  
    32    15    17 1   
    33    16    45 1   
    34    17    18 2   
    35    17    25 1   
    36    18    19 1   
    37    19    20 1   
    38    19    23 1   
    39    20    21 1   
    40    20    22 1   
    41    20    46 1   
    42    21    47 1   
    43    21    48 1   
    44    21    49 1   
    45    22    50 1   
    46    22    51 1   
    47    22    52 1   
    48    23    24 ar  
    49    23    25 ar  
    50    24    29 ar  
    51    25    26 ar  
    52    26    27 1   
    53    26    28 ar  
    54    27    53 1   
    55    27    54 1   
    56    28    29 ar  
    57    29    55 1   
@<TRIPOS>SUBSTRUCTURE
     1 VSH         1 TEMP              0 ****  ****    0 ROOT
