@<TRIPOS>MOLECULE
VSI
   49    51     1     0     0
SMALL
No Charge or Current Charge


@<TRIPOS>ATOM
      1 CBB         -7.0030     2.4320    -1.3210 c3         1 VSI      -0.176100
      2 CBA         -6.3800     1.2510    -0.5840 c          1 VSI       0.612100
      3 OBC         -7.0620     0.3630    -0.0850 o          1 VSI      -0.573100
      4 NAZ         -4.9990     1.2860    -0.5040 ns         1 VSI      -0.173000
      5 CAU         -4.0990     0.3400     0.0580 ca         1 VSI      -0.025000
      6 CAV         -4.0770    -1.0130    -0.3580 ca         1 VSI       0.121500
      7 ClX         -5.1120    -1.6020    -1.6610 cl         1 VSI      -0.180000
      8 CAW         -3.1700    -1.9160     0.2240 ca         1 VSI      -0.081000
      9 CAT         -3.1760     0.7690     1.0350 ca         1 VSI       0.121500
     10 ClY         -3.1450     2.4520     1.5630 cl         1 VSI      -0.180000
     11 CAS         -2.2740    -0.1390     1.6140 ca         1 VSI      -0.081000
     12 CAR         -2.2700    -1.4890     1.2180 ca         1 VSI      -0.091300
     13 CAQ         -1.2850    -2.4700     1.8360 c3         1 VSI       0.279100
     14 NAO         -0.0680    -2.5170     1.0210 nu         1 VSI      -0.910400
     15 CAN          1.0550    -3.1860     1.3580 c2         1 VSI       0.695800
     16 NAP          1.0240    -4.1210     2.2050 n2         1 VSI      -0.888100
     17 NAL          2.1270    -2.9220     0.5430 ns         1 VSI      -0.486400
     18 C            2.4100    -1.7970    -0.2010 c          1 VSI       0.588100
     19 O            1.6650    -0.8260    -0.2470 o          1 VSI      -0.553100
     20 CA           3.7420    -1.8720    -0.9660 c3         1 VSI      -0.011400
     21 N            4.1450    -0.6140    -1.6270 na         1 VSI      -0.077700
     22 CAD          4.6890     0.4840    -0.9720 ca         1 VSI      -0.050200
     23 CAC          4.9350     0.6600     0.4000 ca         1 VSI      -0.082000
     24 CAB          5.4990     1.8840     0.8290 ca         1 VSI      -0.004000
     25 CBD          5.7640     2.1010     2.2250 cg         1 VSI       0.325000
     26 NBE          5.9810     2.2680     3.3610 n1         1 VSI      -0.459000
     27 CAA          5.8000     2.8980    -0.1160 ca         1 VSI      -0.103000
     28 CAF          5.5410     2.6950    -1.4880 ca         1 VSI      -0.063000
     29 CAE          4.9830     1.4700    -1.8730 ca         1 VSI      -0.070800
     30 CAI          4.6150     0.9890    -3.1710 cc         1 VSI      -0.232200
     31 CAH          4.1030    -0.2930    -3.0030 cd         1 VSI      -0.138100
     32 H1          -6.6530     3.3640    -0.8620 hc         1 VSI       0.063033
     33 H2          -6.5720     2.4910    -2.3270 hc         1 VSI       0.063033
     34 H3          -8.0970     2.3810    -1.3500 hc         1 VSI       0.063033
     35 H4          -4.5640     2.1150    -0.8890 hn         1 VSI       0.166000
     36 H5          -3.1570    -2.9500    -0.1110 ha         1 VSI       0.139000
     37 H6          -1.5750     0.2120     2.3700 ha         1 VSI       0.139000
     38 H7          -1.0480    -2.1520     2.8620 h1         1 VSI       0.064200
     39 H8          -1.7460    -3.4670     1.8970 h1         1 VSI       0.064200
     40 H9           0.1300    -1.6930     0.4540 hn         1 VSI       0.521000
     41 H10          1.9560    -4.5500     2.2550 hn         1 VSI       0.387400
     42 H11          2.8300    -3.6440     0.5100 hn         1 VSI       0.319500
     43 H12          4.5270    -2.1700    -0.2610 h1         1 VSI       0.079200
     44 H13          3.6510    -2.6610    -1.7210 h1         1 VSI       0.079200
     45 H14          4.6980    -0.1230     1.1170 ha         1 VSI       0.121000
     46 H15          6.2330     3.8410     0.2120 ha         1 VSI       0.125000
     47 H16          5.7670     3.4640    -2.2230 ha         1 VSI       0.123000
     48 H17          4.7130     1.5130    -4.1200 ha         1 VSI       0.212000
     49 H18          3.7220    -0.9890    -3.7460 h4         1 VSI       0.215000
@<TRIPOS>BOND
     1     1     2 1   
     2     1    32 1   
     3     1    33 1   
     4     1    34 1   
     5     2     3 2   
     6     2     4 1   
     7     4     5 1   
     8     4    35 1   
     9     5     6 ar  
    10     5     9 ar  
    11     6     7 1   
    12     6     8 ar  
    13     8    12 ar  
    14     8    36 1   
    15     9    10 1   
    16     9    11 ar  
    17    11    12 ar  
    18    11    37 1   
    19    12    13 1   
    20    13    14 1   
    21    13    38 1   
    22    13    39 1   
    23    14    15 1   
    24    14    40 1   
    25    15    16 2   
    26    15    17 1   
    27    16    41 1   
    28    17    18 1   
    29    17    42 1   
    30    18    19 2   
    31    18    20 1   
    32    20    21 1   
    33    20    43 1   
    34    20    44 1   
    35    21    22 1   
    36    21    31 1   
    37    22    23 ar  
    38    22    29 ar  
    39    23    24 ar  
    40    23    45 1   
    41    24    25 1   
    42    24    27 ar  
    43    25    26 3   
    44    27    28 ar  
    45    27    46 1   
    46    28    29 ar  
    47    28    47 1   
    48    29    30 1   
    49    30    31 2   
    50    30    48 1   
    51    31    49 1   
@<TRIPOS>SUBSTRUCTURE
     1 VSI         1 TEMP              0 ****  ****    0 ROOT
