@<TRIPOS>MOLECULE
VSI
   49    51     1     0     0
SMALL
abcg2


@<TRIPOS>ATOM
      1 CBB         -7.3980     2.0550    -1.1370 c3         1 VSI      -0.176100
      2 CBA         -6.4970     1.0240    -0.5140 c          1 VSI       0.612100
      3 OBC         -6.9140     0.0110     0.0140 o          1 VSI      -0.573100
      4 NAZ         -5.1700     1.3140    -0.5680 ns         1 VSI      -0.173000
      5 CAU         -4.2060     0.4870     0.0220 ca         1 VSI      -0.025000
      6 CAV         -3.8250    -0.7210    -0.5620 ca         1 VSI       0.121500
      7 CLX         -4.5480    -1.1960    -2.0530 cl         1 VSI      -0.180000
      8 CAW         -2.8700    -1.5370     0.0150 ca         1 VSI      -0.081000
      9 CAT         -3.5880     0.8410     1.2170 ca         1 VSI       0.121500
     10 CLY         -4.0370     2.3200     1.9830 cl         1 VSI      -0.180000
     11 CAS         -2.6200     0.0420     1.8050 ca         1 VSI      -0.081000
     12 CAR         -2.2640    -1.1580     1.2080 ca         1 VSI      -0.091300
     13 CAQ         -1.2120    -2.0380     1.8260 c3         1 VSI       0.279100
     14 NAO         -0.0340    -2.0420     0.9920 nu         1 VSI      -0.910400
     15 CAN          0.9400    -2.9610     1.1940 c2         1 VSI       0.695800
     16 NAP          0.7860    -3.9420     1.9940 n2         1 VSI      -0.888100
     17 NAL          2.1180    -2.7840     0.4430 ns         1 VSI      -0.486400
     18 C            2.4960    -1.7440    -0.3410 c          1 VSI       0.588100
     19 O            1.8470    -0.7370    -0.5360 o          1 VSI      -0.553100
     20 CA           3.8580    -1.9580    -0.9920 c3         1 VSI      -0.011400
     21 N            4.3460    -0.7620    -1.6020 na         1 VSI      -0.077700
     22 CAD          4.8780     0.3070    -0.9350 ca         1 VSI      -0.050200
     23 CAC          5.1520     0.4650     0.4140 ca         1 VSI      -0.082000
     24 CAB          5.7130     1.6760     0.8020 ca         1 VSI      -0.004000
     25 CBD          6.0130     1.8890     2.1790 cg         1 VSI       0.325000
     26 NBE          6.2560     2.0660     3.2920 n1         1 VSI      -0.459000
     27 CAA          5.9930     2.7000    -0.1260 ca         1 VSI      -0.103000
     28 CAF          5.7120     2.5260    -1.4620 ca         1 VSI      -0.063000
     29 CAE          5.1430     1.3200    -1.8870 ca         1 VSI      -0.070800
     30 CAI          4.7270     0.8140    -3.1510 cc         1 VSI      -0.232200
     31 CAH          4.2440    -0.4420    -2.9270 cd         1 VSI      -0.138100
     32 H1          -7.9290     2.5870    -0.3470 hc         1 VSI       0.063033
     33 H2          -6.8670     2.7870    -1.7410 hc         1 VSI       0.063033
     34 H3          -8.1440     1.5610    -1.7570 hc         1 VSI       0.063033
     35 H4          -4.8710     2.2010    -0.9430 hn         1 VSI       0.166000
     36 H5          -2.5950    -2.4690    -0.4620 ha         1 VSI       0.139000
     37 H6          -2.1530     0.3500     2.7310 ha         1 VSI       0.139000
     38 H7          -0.9900    -1.6980     2.8430 h1         1 VSI       0.064200
     39 H8          -1.5880    -3.0580     1.9130 h1         1 VSI       0.064200
     40 H9           0.2270    -1.1770     0.5430 hn         1 VSI       0.521000
     41 H10          1.5870    -4.5610     1.9980 hn         1 VSI       0.387400
     42 H11          2.7870    -3.5330     0.5480 hn         1 VSI       0.319500
     43 H12          4.5770    -2.3340    -0.2600 h1         1 VSI       0.079200
     44 H13          3.7620    -2.7350    -1.7540 h1         1 VSI       0.079200
     45 H14          4.9480    -0.3070     1.1440 ha         1 VSI       0.121000
     46 H15          6.4310     3.6260     0.2230 ha         1 VSI       0.125000
     47 H16          5.9280     3.3150    -2.1710 ha         1 VSI       0.123000
     48 H17          4.7870     1.3120    -4.1050 ha         1 VSI       0.212000
     49 H18          3.8370    -1.1560    -3.6270 h4         1 VSI       0.215000
@<TRIPOS>BOND
     1     1     2 1   
     2     1    32 1   
     3     1    33 1   
     4     1    34 1   
     5     2     3 2   
     6     2     4 1   
     7     4     5 1   
     8     4    35 1   
     9     5     6 ar  
    10     5     9 ar  
    11     6     7 1   
    12     6     8 ar  
    13     8    12 ar  
    14     8    36 1   
    15     9    10 1   
    16     9    11 ar  
    17    11    12 ar  
    18    11    37 1   
    19    12    13 1   
    20    13    14 1   
    21    13    38 1   
    22    13    39 1   
    23    14    15 1   
    24    14    40 1   
    25    15    16 2   
    26    15    17 1   
    27    16    41 1   
    28    17    18 1   
    29    17    42 1   
    30    18    19 2   
    31    18    20 1   
    32    20    21 1   
    33    20    43 1   
    34    20    44 1   
    35    21    22 1   
    36    21    31 1   
    37    22    23 ar  
    38    22    29 ar  
    39    23    24 ar  
    40    23    45 1   
    41    24    25 1   
    42    24    27 ar  
    43    25    26 3   
    44    27    28 ar  
    45    27    46 1   
    46    28    29 ar  
    47    28    47 1   
    48    29    30 1   
    49    30    31 2   
    50    30    48 1   
    51    31    49 1   
@<TRIPOS>SUBSTRUCTURE
     1 VSI         1 TEMP              0 ****  ****    0 ROOT
