@<TRIPOS>MOLECULE
VSK
   53    55     1     0     0
SMALL
No Charge or Current Charge


@<TRIPOS>ATOM
      1 C1          -5.5780     1.0680    -0.9950 ca         1 VSK      -0.067000
      2 C10         -1.7740     0.4640     0.3250 c3         1 VSK       0.092500
      3 C11         -0.3520     0.8270    -0.2420 c          1 VSK       0.605100
      4 C12          2.1140     0.4130     0.0200 c3         1 VSK       0.104000
      5 C13          3.0470    -0.5660     0.7600 c3         1 VSK      -0.048100
      6 C14          4.5210    -0.3730     0.3660 ca         1 VSK      -0.083300
      7 C15          5.0730    -1.0910    -0.7300 ca         1 VSK      -0.062300
      8 C16          6.4230    -0.9010    -1.0820 ca         1 VSK      -0.113000
      9 C17          7.2370    -0.0100    -0.3670 ca         1 VSK      -0.067300
     10 C18          6.6920     0.7050     0.7100 ca         1 VSK      -0.113000
     11 C19          5.3450     0.5360     1.0840 ca         1 VSK      -0.062300
     12 C2          -5.2150    -0.1290    -0.3600 ca         1 VSK      -0.099800
     13 C20          4.8180     1.3470     2.2670 c3         1 VSK      -0.049300
     14 C21          8.6930     0.1860    -0.7610 c3         1 VSK      -0.045800
     15 C22          4.2450    -2.0780    -1.5530 c3         1 VSK      -0.049300
     16 C3          -6.1330    -0.9220     0.2690 ca         1 VSK      -0.047200
     17 C4          -7.4910    -0.5810     0.3180 ca         1 VSK      -0.127000
     18 C5          -7.8920     0.6200    -0.3090 ca         1 VSK      -0.090000
     19 C6          -6.9400     1.4400    -0.9620 ca         1 VSK      -0.137000
     20 C7          -4.1130    -1.9720     0.5080 cc         1 VSK      -0.156100
     21 C8          -3.9380    -0.7910    -0.2060 cd         1 VSK      -0.150400
     22 C9          -2.6150    -0.2890    -0.7370 c3         1 VSK      -0.038200
     23 N1          -5.4940    -2.0290     0.7960 na         1 VSK      -0.221700
     24 N2          -2.5570     1.6130     0.8930 n8         1 VSK      -0.991200
     25 N3           0.7110     0.2160     0.3900 ns         1 VSK      -0.508900
     26 O1          -0.1840     1.6090    -1.1710 o          1 VSK      -0.604100
     27 H1          -4.8400     1.6900    -1.4960 ha         1 VSK       0.115000
     28 H2          -1.6090    -0.2410     1.1520 h1         1 VSK       0.057700
     29 H3           2.3990     1.4460     0.2560 h1         1 VSK       0.057200
     30 H4           2.2190     0.2720    -1.0630 h1         1 VSK       0.057200
     31 H5           2.9090    -0.4430     1.8400 hc         1 VSK       0.047200
     32 H6           2.7180    -1.5920     0.5580 hc         1 VSK       0.047200
     33 H7           6.8460    -1.4510    -1.9190 ha         1 VSK       0.110000
     34 H8           7.3230     1.3990     1.2600 ha         1 VSK       0.110000
     35 H9           4.5780     0.6960     3.1160 hc         1 VSK       0.042200
     36 H10          5.5540     2.0790     2.6200 hc         1 VSK       0.042200
     37 H11          3.9140     1.9060     2.0010 hc         1 VSK       0.042200
     38 H12          8.7920     0.9910    -1.4990 hc         1 VSK       0.042033
     39 H13          9.3110     0.4480     0.1060 hc         1 VSK       0.042033
     40 H14          9.1150    -0.7260    -1.2010 hc         1 VSK       0.042033
     41 H15          3.9690    -2.9540    -0.9550 hc         1 VSK       0.042200
     42 H16          3.3250    -1.6170    -1.9280 hc         1 VSK       0.042200
     43 H17          4.7970    -2.4440    -2.4270 hc         1 VSK       0.042200
     44 H18         -8.2140    -1.2180     0.8210 ha         1 VSK       0.114000
     45 H19         -8.9390     0.9150    -0.2900 ha         1 VSK       0.112000
     46 H20         -7.2590     2.3610    -1.4430 ha         1 VSK       0.113000
     47 H21         -3.4050    -2.7340     0.8200 h4         1 VSK       0.210000
     48 H22         -2.7750     0.3620    -1.6050 hc         1 VSK       0.057700
     49 H23         -2.0280    -1.1400    -1.1070 hc         1 VSK       0.057700
     50 H24         -5.9560    -2.7730     1.3110 hn         1 VSK       0.351000
     51 H25         -2.6640     2.3310     0.1670 hn         1 VSK       0.412000
     52 H26         -3.5210     1.2870     1.0410 hn         1 VSK       0.412000
     53 H28          0.4930    -0.4030     1.1620 hn         1 VSK       0.309500
@<TRIPOS>BOND
     1     1    12 ar  
     2     1    19 ar  
     3     1    27 1   
     4     2     3 1   
     5     2    22 1   
     6     2    24 1   
     7     2    28 1   
     8     3    25 1   
     9     3    26 2   
    10     4     5 1   
    11     4    25 1   
    12     4    29 1   
    13     4    30 1   
    14     5     6 1   
    15     5    31 1   
    16     5    32 1   
    17     6     7 ar  
    18     6    11 ar  
    19     7     8 ar  
    20     7    15 1   
    21     8     9 ar  
    22     8    33 1   
    23     9    10 ar  
    24     9    14 1   
    25    10    11 ar  
    26    10    34 1   
    27    11    13 1   
    28    12    16 ar  
    29    12    21 1   
    30    13    35 1   
    31    13    36 1   
    32    13    37 1   
    33    14    38 1   
    34    14    39 1   
    35    14    40 1   
    36    15    41 1   
    37    15    42 1   
    38    15    43 1   
    39    16    17 ar  
    40    16    23 1   
    41    17    18 ar  
    42    17    44 1   
    43    18    19 ar  
    44    18    45 1   
    45    19    46 1   
    46    20    21 2   
    47    20    23 1   
    48    20    47 1   
    49    21    22 1   
    50    22    48 1   
    51    22    49 1   
    52    23    50 1   
    53    24    51 1   
    54    24    52 1   
    55    25    53 1   
@<TRIPOS>SUBSTRUCTURE
     1 VSK         1 TEMP              0 ****  ****    0 ROOT
