@<TRIPOS>MOLECULE
VSK
   53    55     1     0     0
SMALL
abcg2


@<TRIPOS>ATOM
      1 C1          -5.3840     0.8900    -1.1030 ca         1 VSK      -0.067000
      2 C10         -1.7280     0.6940     0.4100 c3         1 VSK       0.092500
      3 C11         -0.3370     1.0420    -0.0970 c          1 VSK       0.605100
      4 C12          2.0620     0.5900     0.1410 c3         1 VSK       0.104000
      5 C13          2.9190    -0.5090     0.7670 c3         1 VSK      -0.048100
      6 C14          4.3640    -0.3760     0.3630 ca         1 VSK      -0.083300
      7 C15          4.8270    -0.9910    -0.8090 ca         1 VSK      -0.062300
      8 C16          6.1580    -0.8380    -1.1830 ca         1 VSK      -0.113000
      9 C17          7.0500    -0.0830    -0.4280 ca         1 VSK      -0.067300
     10 C18          6.5730     0.5200     0.7280 ca         1 VSK      -0.113000
     11 C19          5.2480     0.3870     1.1350 ca         1 VSK      -0.062300
     12 C2          -4.9650    -0.2250    -0.3650 ca         1 VSK      -0.099800
     13 C20          4.8010     1.0560     2.4060 c3         1 VSK      -0.049300
     14 C21          8.4770     0.0840    -0.8630 c3         1 VSK      -0.045800
     15 C22          3.9160    -1.8290    -1.6620 c3         1 VSK      -0.049300
     16 C3          -5.9380    -1.0120     0.2920 ca         1 VSK      -0.047200
     17 C4          -7.2990    -0.7140     0.2370 ca         1 VSK      -0.127000
     18 C5          -7.6800     0.3940    -0.4960 ca         1 VSK      -0.090000
     19 C6          -6.7310     1.1880    -1.1620 ca         1 VSK      -0.137000
     20 C7          -3.9410    -1.9150     0.6830 cc         1 VSK      -0.156100
     21 C8          -3.6880    -0.8230    -0.1010 cd         1 VSK      -0.150400
     22 C9          -2.3450    -0.3480    -0.5490 c3         1 VSK      -0.038200
     23 N1          -5.2810    -2.0270     0.9220 na         1 VSK      -0.221700
     24 N2          -2.4810     1.9220     0.5660 n8         1 VSK      -0.991200
     25 N3           0.6770     0.4290     0.5280 ns         1 VSK      -0.508900
     26 O1          -0.1760     1.7970    -1.0470 o          1 VSK      -0.604100
     27 H1          -4.6670     1.5110    -1.6250 ha         1 VSK       0.115000
     28 H2          -1.6520     0.2280     1.3980 h1         1 VSK       0.057700
     29 H3           2.4340     1.5730     0.4460 h1         1 VSK       0.057200
     30 H4           2.1370     0.5480    -0.9470 h1         1 VSK       0.057200
     31 H5           2.8200    -0.4650     1.8540 hc         1 VSK       0.047200
     32 H6           2.5240    -1.4820     0.4670 hc         1 VSK       0.047200
     33 H7           6.5060    -1.3210    -2.0900 ha         1 VSK       0.110000
     34 H8           7.2500     1.1150     1.3330 ha         1 VSK       0.110000
     35 H9           4.4660     0.3300     3.1490 hc         1 VSK       0.042200
     36 H10          5.6140     1.6280     2.8510 hc         1 VSK       0.042200
     37 H11          3.9720     1.7460     2.2390 hc         1 VSK       0.042200
     38 H12          8.5520     0.7540    -1.7230 hc         1 VSK       0.042033
     39 H13          9.0910     0.5030    -0.0670 hc         1 VSK       0.042033
     40 H14          8.9180    -0.8680    -1.1610 hc         1 VSK       0.042033
     41 H15          3.5500    -2.7050    -1.1220 hc         1 VSK       0.042200
     42 H16          3.0380    -1.2740    -1.9960 hc         1 VSK       0.042200
     43 H17          4.4340    -2.1840    -2.5520 hc         1 VSK       0.042200
     44 H18         -8.0300    -1.3270     0.7480 ha         1 VSK       0.114000
     45 H19         -8.7280     0.6550    -0.5580 ha         1 VSK       0.112000
     46 H20         -7.0650     2.0490    -1.7270 ha         1 VSK       0.113000
     47 H21         -3.2490    -2.6360     1.0910 h4         1 VSK       0.210000
     48 H22         -2.4100     0.0900    -1.5500 hc         1 VSK       0.057700
     49 H23         -1.6650    -1.2010    -0.6270 hc         1 VSK       0.057700
     50 H24         -5.7110    -2.7640     1.4540 hn         1 VSK       0.351000
     51 H25         -2.6080     2.3640    -0.3370 hn         1 VSK       0.412000
     52 H26         -3.4060     1.7110     0.9180 hn         1 VSK       0.412000
     53 H28          0.4780    -0.1220     1.3480 hn         1 VSK       0.309500
@<TRIPOS>BOND
     1     1    12 ar  
     2     1    19 ar  
     3     1    27 1   
     4     2     3 1   
     5     2    22 1   
     6     2    24 1   
     7     2    28 1   
     8     3    25 1   
     9     3    26 2   
    10     4     5 1   
    11     4    25 1   
    12     4    29 1   
    13     4    30 1   
    14     5     6 1   
    15     5    31 1   
    16     5    32 1   
    17     6     7 ar  
    18     6    11 ar  
    19     7     8 ar  
    20     7    15 1   
    21     8     9 ar  
    22     8    33 1   
    23     9    10 ar  
    24     9    14 1   
    25    10    11 ar  
    26    10    34 1   
    27    11    13 1   
    28    12    16 ar  
    29    12    21 1   
    30    13    35 1   
    31    13    36 1   
    32    13    37 1   
    33    14    38 1   
    34    14    39 1   
    35    14    40 1   
    36    15    41 1   
    37    15    42 1   
    38    15    43 1   
    39    16    17 ar  
    40    16    23 1   
    41    17    18 ar  
    42    17    44 1   
    43    18    19 ar  
    44    18    45 1   
    45    19    46 1   
    46    20    21 2   
    47    20    23 1   
    48    20    47 1   
    49    21    22 1   
    50    22    48 1   
    51    22    49 1   
    52    23    50 1   
    53    24    51 1   
    54    24    52 1   
    55    25    53 1   
@<TRIPOS>SUBSTRUCTURE
     1 VSK         1 TEMP              0 ****  ****    0 ROOT
