@<TRIPOS>MOLECULE
VSL
   25    26     1     0     0
SMALL
No Charge or Current Charge


@<TRIPOS>ATOM
      1 N1          -3.0960    12.3890   -34.2330 na         1 VSL       0.019800
      2 C7           0.2750    13.9490   -37.0130 c6         1 VSL      -0.075400
      3 C8          -0.7380    14.5860   -36.0330 c6         1 VSL       0.002900
      4 O1          -4.4820    14.9190   -33.5600 o          1 VSL      -0.498000
      5 C5          -0.1280    11.6060   -36.1200 c6         1 VSL      -0.100700
      6 C6           0.9340    12.6970   -36.3970 c6         1 VSL      -0.075400
      7 C4          -1.3260    12.1530   -35.3750 cc         1 VSL       0.235300
      8 C3          -1.6050    13.5390   -35.3580 cc         1 VSL      -0.112300
      9 C2          -2.7440    13.6940   -34.6080 cd         1 VSL      -0.211600
     10 O           -2.9040    16.1040   -34.7040 os         1 VSL      -0.431100
     11 C           -3.5480    17.3500   -34.3810 c3         1 VSL       0.152900
     12 N           -2.2040    11.4300   -34.7130 nd         1 VSL      -0.489800
     13 H1          -3.9030    12.1270   -33.6650 hn         1 VSL       0.392000
     14 H2           1.0430    14.6860   -37.2860 hc         1 VSL       0.042700
     15 H3          -0.2360    13.6730   -37.9460 hc         1 VSL       0.042700
     16 H4          -0.1930    15.1620   -35.2720 hc         1 VSL       0.055700
     17 H5          -1.3510    15.3100   -36.5870 hc         1 VSL       0.055700
     18 H6          -0.4580    11.1720   -37.0730 hc         1 VSL       0.057700
     19 H7           0.3330    10.7840   -35.5560 hc         1 VSL       0.057700
     20 H8           1.7050    12.3030   -37.0740 hc         1 VSL       0.044200
     21 H9           1.4450    12.9680   -35.4620 hc         1 VSL       0.044200
     22 H10         -2.9930    18.1900   -34.8170 h1         1 VSL       0.053033
     23 H11         -4.5710    17.3770   -34.7770 h1         1 VSL       0.053033
     24 H12         -3.5910    17.4990   -33.2940 h1         1 VSL       0.053033
     25 C1          -3.4630    14.9420   -34.2390 c          1 VSL       0.631700
@<TRIPOS>BOND
     1     1     9 1   
     2     1    12 1   
     3     1    13 1   
     4     2     3 1   
     5     2     6 1   
     6     2    14 1   
     7     2    15 1   
     8     3     8 1   
     9     3    16 1   
    10     3    17 1   
    11     4    25 2   
    12     5     6 1   
    13     5     7 1   
    14     5    18 1   
    15     5    19 1   
    16     6    20 1   
    17     6    21 1   
    18     7     8 1   
    19     7    12 2   
    20     8     9 2   
    21     9    25 1   
    22    10    11 1   
    23    10    25 1   
    24    11    22 1   
    25    11    23 1   
    26    11    24 1   
@<TRIPOS>SUBSTRUCTURE
     1 VSL         1 TEMP              0 ****  ****    0 ROOT
