@<TRIPOS>MOLECULE
VSL
   25    26     1     0     0
SMALL
abcg2


@<TRIPOS>ATOM
      1 N1          -3.0680    12.5380   -34.2660 na         1 VSL       0.019800
      2 C7           0.3160    13.8980   -37.0440 c6         1 VSL      -0.075400
      3 C8          -0.6280    14.6210   -36.0710 c6         1 VSL       0.002900
      4 O1          -4.5110    14.8630   -33.5890 o          1 VSL      -0.498000
      5 C5          -0.1450    11.5920   -36.0960 c6         1 VSL      -0.100700
      6 C6           0.9300    12.6400   -36.4210 c6         1 VSL      -0.075400
      7 C4          -1.2940    12.2460   -35.3980 cc         1 VSL       0.235300
      8 C3          -1.5280    13.6360   -35.3930 cc         1 VSL      -0.112300
      9 C2          -2.6890    13.7880   -34.6440 cd         1 VSL      -0.211600
     10 O           -2.9510    16.0950   -34.6560 os         1 VSL      -0.431100
     11 C           -3.6660    17.2990   -34.3070 c3         1 VSL       0.152900
     12 N           -2.2360    11.5920   -34.7090 nd         1 VSL      -0.489800
     13 H1          -3.8720    12.2970   -33.7060 hn         1 VSL       0.392000
     14 H2           1.1030    14.5840   -37.3620 hc         1 VSL       0.042700
     15 H3          -0.2410    13.6130   -37.9430 hc         1 VSL       0.042700
     16 H4          -0.0380    15.1520   -35.3150 hc         1 VSL       0.055700
     17 H5          -1.2100    15.3820   -36.5920 hc         1 VSL       0.055700
     18 H6          -0.4970    11.1320   -37.0250 hc         1 VSL       0.057700
     19 H7           0.2640    10.7880   -35.4810 hc         1 VSL       0.057700
     20 H8           1.6690    12.2060   -37.0960 hc         1 VSL       0.044200
     21 H9           1.4580    12.9150   -35.5020 hc         1 VSL       0.044200
     22 H10         -3.0890    18.1110   -34.7380 h1         1 VSL       0.053033
     23 H11         -4.6700    17.2760   -34.7270 h1         1 VSL       0.053033
     24 H12         -3.7210    17.4010   -33.2240 h1         1 VSL       0.053033
     25 C1          -3.4850    14.9430   -34.2360 c          1 VSL       0.631700
@<TRIPOS>BOND
     1     1     9 1   
     2     1    12 1   
     3     1    13 1   
     4     2     3 1   
     5     2     6 1   
     6     2    14 1   
     7     2    15 1   
     8     3     8 1   
     9     3    16 1   
    10     3    17 1   
    11     4    25 2   
    12     5     6 1   
    13     5     7 1   
    14     5    18 1   
    15     5    19 1   
    16     6    20 1   
    17     6    21 1   
    18     7     8 1   
    19     7    12 2   
    20     8     9 2   
    21     9    25 1   
    22    10    11 1   
    23    10    25 1   
    24    11    22 1   
    25    11    23 1   
    26    11    24 1   
@<TRIPOS>SUBSTRUCTURE
     1 VSL         1 TEMP              0 ****  ****    0 ROOT
