@<TRIPOS>MOLECULE
VSM
   54    57     1     0     0
SMALL
No Charge or Current Charge


@<TRIPOS>ATOM
      1 C1          -3.8160     5.0220    14.2220 c6         1 VSM      -0.037200
      2 C2          -3.7080     3.5520    14.6790 c6         1 VSM      -0.086400
      3 C3          -5.0840     2.8680    14.7000 c6         1 VSM       0.227300
      4 O3          -4.9160     1.4960    15.0900 os         1 VSM      -0.574700
      5 C4          -5.6310     2.9120    13.2600 c6         1 VSM      -0.090400
      6 C5          -5.7880     4.3570    12.6750 c6         1 VSM       0.001200
      7 C6          -6.1090     4.1700    11.1650 c6         1 VSM      -0.068400
      8 C7          -6.1330     5.5030    10.4130 c6         1 VSM      -0.070400
      9 C8          -4.7630     6.2380    10.5000 c6         1 VSM      -0.005500
     10 C9          -4.0540     6.0620    11.8840 c2         1 VSM      -0.096400
     11 C10         -4.5080     5.2110    12.8510 c2         1 VSM      -0.111400
     12 C11         -2.7300     6.8450    12.0330 c6         1 VSM      -0.039200
     13 C12         -2.6970     8.6700    10.8960 c6         1 VSM      -0.058400
     14 C13         -3.5170     8.3630     9.6490 c5         1 VSM      -0.063700
     15 C14         -4.9160     7.7330     9.9950 c5         1 VSM      -0.040000
     16 C15         -5.5540     7.8790     8.5700 c5         1 VSM      -0.185400
     17 C16         -5.2790     9.3490     8.2450 c          1 VSM       0.574100
     18 C17         -3.8150     9.5350     8.6560 c5         1 VSM      -0.184400
     19 C18         -5.7210     8.5630    11.0570 c3         1 VSM      -0.083100
     20 C           -6.9550     5.1050    13.4010 c3         1 VSM      -0.084100
     21 O16         -6.1080    10.2480     8.1820 o          1 VSM      -0.514100
     22 S22         -5.6960     0.9800    16.4180 s6         1 VSM       1.396800
     23 O20         -7.0740     0.6430    16.0760 o          1 VSM      -0.573000
     24 O21         -5.3440     1.7970    17.5780 o          1 VSM      -0.573000
     25 N19         -4.9080    -0.4170    16.5270 n8         1 VSM      -1.018100
     26 H1          -2.7990     5.4270    14.2440 hc         1 VSM       0.050700
     27 H2          -4.3760     5.5880    14.9780 hc         1 VSM       0.050700
     28 H3          -3.0260     3.0060    14.0120 hc         1 VSM       0.063200
     29 H4          -3.2630     3.5120    15.6820 hc         1 VSM       0.063200
     30 H5          -5.7620     3.3930    15.3890 h1         1 VSM       0.055700
     31 H6          -6.5990     2.3930    13.2280 hc         1 VSM       0.060700
     32 H7          -4.9570     2.3240    12.6210 hc         1 VSM       0.060700
     33 H8          -7.0740     3.6600    11.0400 hc         1 VSM       0.045200
     34 H9          -5.3560     3.5220    10.6940 hc         1 VSM       0.045200
     35 H10         -6.9530     6.1200    10.7960 hc         1 VSM       0.045700
     36 H11         -6.3800     5.3100     9.3600 hc         1 VSM       0.045700
     37 H12         -4.1080     5.7270     9.7800 hc         1 VSM       0.051700
     38 H15         -1.9080     6.2060    11.6860 hc         1 VSM       0.046700
     39 H16         -2.5110     7.1170    13.0710 hc         1 VSM       0.046700
     40 H17         -1.6680     8.9610    10.6450 hc         1 VSM       0.045700
     41 H18         -3.1450     9.4910    11.4720 hc         1 VSM       0.045700
     42 H19         -2.9060     7.6180     9.1230 hc         1 VSM       0.046700
     43 H20         -6.6280     7.6660     8.5420 hc         1 VSM       0.072700
     44 H21         -5.0060     7.2400     7.8660 hc         1 VSM       0.072700
     45 H22         -3.1920     9.3890     7.7670 hc         1 VSM       0.073700
     46 H23         -3.6520    10.5390     9.0610 hc         1 VSM       0.073700
     47 H24         -5.3630     8.3830    12.0770 hc         1 VSM       0.037700
     48 H25         -5.6430     9.6430    10.8870 hc         1 VSM       0.037700
     49 H26         -6.7900     8.3210    11.0410 hc         1 VSM       0.037700
     50 H27         -6.7950     5.1660    14.4830 hc         1 VSM       0.038033
     51 H28         -7.0600     6.1370    13.0490 hc         1 VSM       0.038033
     52 H29         -7.9150     4.5990    13.2410 hc         1 VSM       0.038033
     53 H30         -5.6710    -1.0390    16.2790 hn         1 VSM       0.484000
     54 H31         -4.3860    -0.3190    15.6610 hn         1 VSM       0.484000
@<TRIPOS>BOND
     1     1     2 1   
     2     1    11 1   
     3     1    26 1   
     4     1    27 1   
     5     2     3 1   
     6     2    28 1   
     7     2    29 1   
     8     3     4 1   
     9     3     5 1   
    10     3    30 1   
    11     4    22 1   
    12     5     6 1   
    13     5    31 1   
    14     5    32 1   
    15     6     7 1   
    16     6    11 1   
    17     6    20 1   
    18     7     8 1   
    19     7    33 1   
    20     7    34 1   
    21     8     9 1   
    22     8    35 1   
    23     8    36 1   
    24     9    10 1   
    25     9    15 1   
    26     9    37 1   
    27    10    11 2   
    28    10    12 1   
    29    12    13 1   
    30    12    38 1   
    31    12    39 1   
    32    13    14 1   
    33    13    40 1   
    34    13    41 1   
    35    14    15 1   
    36    14    18 1   
    37    14    42 1   
    38    15    16 1   
    39    15    19 1   
    40    16    17 1   
    41    16    43 1   
    42    16    44 1   
    43    17    18 1   
    44    17    21 2   
    45    18    45 1   
    46    18    46 1   
    47    19    47 1   
    48    19    48 1   
    49    19    49 1   
    50    20    50 1   
    51    20    51 1   
    52    20    52 1   
    53    22    23 2   
    54    22    24 2   
    55    22    25 1   
    56    25    53 1   
    57    25    54 1   
@<TRIPOS>SUBSTRUCTURE
     1 VSM         1 TEMP              0 ****  ****    0 ROOT
