@<TRIPOS>MOLECULE
VSM
   54    57     1     0     0
SMALL
abcg2


@<TRIPOS>ATOM
      1 C1          -4.0040     5.3290    14.1380 c6         1 VSM      -0.037200
      2 C2          -3.6760     3.9290    14.6520 c6         1 VSM      -0.086400
      3 C3          -4.9390     3.1000    14.6440 c6         1 VSM       0.227300
      4 O3          -4.5910     1.7420    15.0400 os         1 VSM      -0.574700
      5 C4          -5.5420     3.0460    13.2570 c6         1 VSM      -0.090400
      6 C5          -5.8600     4.4310    12.6540 c6         1 VSM       0.001200
      7 C6          -6.2210     4.1910    11.1850 c6         1 VSM      -0.068400
      8 C7          -6.2630     5.4840    10.4000 c6         1 VSM      -0.070400
      9 C8          -4.8960     6.1570    10.4040 c6         1 VSM      -0.005500
     10 C9          -4.1540     6.0290    11.7240 c2         1 VSM      -0.096400
     11 C10         -4.6280     5.3230    12.7630 c2         1 VSM      -0.111400
     12 C11         -2.8050     6.7170    11.7220 c6         1 VSM      -0.039200
     13 C12         -2.8090     8.1610    11.2120 c6         1 VSM      -0.058400
     14 C13         -3.5330     8.1950     9.8860 c5         1 VSM      -0.063700
     15 C14         -4.9670     7.6470    10.0110 c5         1 VSM      -0.040000
     16 C15         -5.5060     7.9250     8.6050 c5         1 VSM      -0.185400
     17 C16         -4.8960     9.2680     8.2450 c          1 VSM       0.574100
     18 C17         -3.6900     9.5120     9.1390 c5         1 VSM      -0.184400
     19 C18         -5.7930     8.4500    11.0250 c3         1 VSM      -0.083100
     20 C           -7.0520     5.0580    13.3940 c3         1 VSM      -0.084100
     21 O16         -5.3010    10.0200     7.3930 o          1 VSM      -0.514100
     22 S22         -5.3930     1.0830    16.2450 s6         1 VSM       1.396800
     23 O20         -6.8110     1.2100    15.9730 o          1 VSM      -0.573000
     24 O21         -4.8920     1.5830    17.5070 o          1 VSM      -0.573000
     25 N19         -4.8190    -0.4370    16.0550 n8         1 VSM      -1.018100
     26 H1          -3.1080     5.9410    14.1810 hc         1 VSM       0.050700
     27 H2          -4.7060     5.7970    14.8380 hc         1 VSM       0.050700
     28 H3          -2.9240     3.4640    14.0090 hc         1 VSM       0.063200
     29 H4          -3.2620     3.9860    15.6620 hc         1 VSM       0.063200
     30 H5          -5.6510     3.5240    15.3600 h1         1 VSM       0.055700
     31 H6          -6.4580     2.4490    13.2640 hc         1 VSM       0.060700
     32 H7          -4.8300     2.5330    12.6000 hc         1 VSM       0.060700
     33 H8          -7.1790     3.6670    11.1280 hc         1 VSM       0.045200
     34 H9          -5.4740     3.5260    10.7370 hc         1 VSM       0.045200
     35 H10         -7.0230     6.1410    10.8260 hc         1 VSM       0.045700
     36 H11         -6.5700     5.2940     9.3680 hc         1 VSM       0.045700
     37 H12         -4.2790     5.6680     9.6350 hc         1 VSM       0.051700
     38 H15         -2.1640     6.1380    11.0440 hc         1 VSM       0.046700
     39 H16         -2.3180     6.6770    12.6930 hc         1 VSM       0.046700
     40 H17         -1.7780     8.5050    11.1030 hc         1 VSM       0.045700
     41 H18         -3.2860     8.8290    11.9340 hc         1 VSM       0.045700
     42 H19         -3.0020     7.5090     9.2100 hc         1 VSM       0.046700
     43 H20         -6.5930     7.9270     8.5080 hc         1 VSM       0.072700
     44 H21         -5.1130     7.1860     7.8950 hc         1 VSM       0.072700
     45 H22         -2.8180     9.7970     8.5480 hc         1 VSM       0.073700
     46 H23         -3.9050    10.3530     9.8060 hc         1 VSM       0.073700
     47 H24         -5.4950     8.2480    12.0540 hc         1 VSM       0.037700
     48 H25         -5.7060     9.5260    10.8690 hc         1 VSM       0.037700
     49 H26         -6.8540     8.2090    10.9410 hc         1 VSM       0.037700
     50 H27         -6.8400     5.2530    14.4450 hc         1 VSM       0.038033
     51 H28         -7.3380     6.0090    12.9440 hc         1 VSM       0.038033
     52 H29         -7.9180     4.3930    13.3560 hc         1 VSM       0.038033
     53 H30         -4.7860    -0.9450    16.9310 hn         1 VSM       0.484000
     54 H31         -5.2960    -0.9700    15.3350 hn         1 VSM       0.484000
@<TRIPOS>BOND
     1     1     2 1   
     2     1    11 1   
     3     1    26 1   
     4     1    27 1   
     5     2     3 1   
     6     2    28 1   
     7     2    29 1   
     8     3     4 1   
     9     3     5 1   
    10     3    30 1   
    11     4    22 1   
    12     5     6 1   
    13     5    31 1   
    14     5    32 1   
    15     6     7 1   
    16     6    11 1   
    17     6    20 1   
    18     7     8 1   
    19     7    33 1   
    20     7    34 1   
    21     8     9 1   
    22     8    35 1   
    23     8    36 1   
    24     9    10 1   
    25     9    15 1   
    26     9    37 1   
    27    10    11 2   
    28    10    12 1   
    29    12    13 1   
    30    12    38 1   
    31    12    39 1   
    32    13    14 1   
    33    13    40 1   
    34    13    41 1   
    35    14    15 1   
    36    14    18 1   
    37    14    42 1   
    38    15    16 1   
    39    15    19 1   
    40    16    17 1   
    41    16    43 1   
    42    16    44 1   
    43    17    18 1   
    44    17    21 2   
    45    18    45 1   
    46    18    46 1   
    47    19    47 1   
    48    19    48 1   
    49    19    49 1   
    50    20    50 1   
    51    20    51 1   
    52    20    52 1   
    53    22    23 2   
    54    22    24 2   
    55    22    25 1   
    56    25    53 1   
    57    25    54 1   
@<TRIPOS>SUBSTRUCTURE
     1 VSM         1 TEMP              0 ****  ****    0 ROOT
