@<TRIPOS>MOLECULE
VSP
   48    50     1     0     0
SMALL
abcg2


@<TRIPOS>ATOM
      1 C10         -9.3730    42.0850   -30.7990 cc         1 VSP       0.386900
      2 C13        -11.7980    44.0990   -32.8400 ca         1 VSP      -0.129000
      3 C17        -10.9830    47.2430   -34.9800 c3         1 VSP      -0.349400
      4 C21        -11.7500    43.3820   -35.1450 ca         1 VSP      -0.144000
      5 C22        -10.9900    42.2800   -34.7770 ca         1 VSP      -0.086000
      6 O20        -13.5880    47.7380   -34.9580 o          1 VSP      -0.531000
      7 N01         -8.0780    44.6720   -32.2540 nv         1 VSP      -1.072900
      8 C11        -10.6710    42.7900   -31.0120 c3         1 VSP      -0.049400
      9 C02         -7.4220    43.5960   -31.7940 ca         1 VSP       0.457900
     10 C12        -11.0210    43.0020   -32.4740 ca         1 VSP      -0.068300
     11 C03         -8.0600    42.4990   -31.1680 ca         1 VSP      -0.390900
     12 C23        -10.6220    42.0900   -33.4510 ca         1 VSP      -0.102000
     13 N24         -5.8810    41.4200   -30.8890 nb         1 VSP      -0.236000
     14 C04         -7.2190    41.4530   -30.7470 ca         1 VSP       0.167500
     15 C14        -12.1610    44.2910   -34.1710 ca         1 VSP       0.252000
     16 N05         -8.0120    40.5160   -30.1810 na         1 VSP      -0.034100
     17 N15        -12.9920    45.3810   -34.5610 nu         1 VSP      -0.878100
     18 C25         -5.4090    42.5070   -31.4820 ca         1 VSP       0.194900
     19 N26         -6.0830    43.5730   -31.9340 nb         1 VSP      -0.311000
     20 C06         -7.6150    39.2190   -29.6310 c3         1 VSP       0.112300
     21 S16        -12.5930    46.9610   -34.2550 s6         1 VSP       1.203100
     22 C07         -8.1660    38.0820   -30.4870 c3         1 VSP      -0.103100
     23 C08         -8.0210    39.1050   -28.1660 c3         1 VSP      -0.103100
     24 C18        -10.9650    47.0900   -36.4920 c3         1 VSP      -0.065100
     25 N09         -9.3220    40.8980   -30.2200 nd         1 VSP      -0.522100
     26 O19        -12.4610    47.1170   -32.8250 o          1 VSP      -0.531000
     27 H13        -12.1230    44.8060   -32.0900 ha         1 VSP       0.150000
     28 H17        -10.7140    48.2510   -34.6580 h1         1 VSP       0.099700
     29 H17A       -10.3150    46.5380   -34.4830 h1         1 VSP       0.099700
     30 H21        -12.0230    43.5440   -36.1800 ha         1 VSP       0.115000
     31 H22        -10.6740    41.5720   -35.5320 ha         1 VSP       0.122000
     32 HN01        -7.5650    45.3920   -32.7350 hn         1 VSP       0.503000
     33 HN0A        -9.0820    44.7270   -32.2420 hn         1 VSP       0.503000
     34 H11        -11.4610    42.2060   -30.5330 hc         1 VSP       0.075200
     35 H11A       -10.6520    43.7590   -30.5040 hc         1 VSP       0.075200
     36 H23        -10.0240    41.2320   -33.1750 ha         1 VSP       0.132000
     37 HN15       -13.3710    45.2890   -35.4980 hn         1 VSP       0.492000
     38 H25         -4.3330    42.5460   -31.6230 h5         1 VSP       0.046100
     39 H06         -6.5270    39.2230   -29.6990 h1         1 VSP       0.081700
     40 H07         -7.8000    37.1260   -30.1110 hc         1 VSP       0.048700
     41 H07A        -9.2560    38.0700   -30.4560 hc         1 VSP       0.048700
     42 H07B        -7.8490    38.1930   -31.5250 hc         1 VSP       0.048700
     43 H08         -7.6590    38.1600   -27.7590 hc         1 VSP       0.048700
     44 H08A        -7.5950    39.9230   -27.5810 hc         1 VSP       0.048700
     45 H08B        -9.1060    39.1310   -28.0610 hc         1 VSP       0.048700
     46 H18         -9.9580    47.2960   -36.8550 hc         1 VSP       0.048367
     47 H18A       -11.2310    46.0770   -36.7930 hc         1 VSP       0.048367
     48 H18B       -11.6530    47.7890   -36.9660 hc         1 VSP       0.048367
@<TRIPOS>BOND
     1     1     8 1   
     2     1    11 1   
     3     1    25 2   
     4     2    10 ar  
     5     2    15 ar  
     6     2    27 1   
     7     3    21 1   
     8     3    24 1   
     9     3    28 1   
    10     3    29 1   
    11     4     5 ar  
    12     4    15 ar  
    13     4    30 1   
    14     5    12 ar  
    15     5    31 1   
    16     6    21 2   
    17     7     9 1   
    18     7    32 1   
    19     7    33 1   
    20     8    10 1   
    21     8    34 1   
    22     8    35 1   
    23     9    11 ar  
    24     9    19 ar  
    25    10    12 ar  
    26    11    14 ar  
    27    12    36 1   
    28    13    14 ar  
    29    13    18 ar  
    30    14    16 1   
    31    15    17 1   
    32    16    20 1   
    33    16    25 1   
    34    17    21 1   
    35    17    37 1   
    36    18    19 ar  
    37    18    38 1   
    38    20    22 1   
    39    20    23 1   
    40    20    39 1   
    41    21    26 2   
    42    22    40 1   
    43    22    41 1   
    44    22    42 1   
    45    23    43 1   
    46    23    44 1   
    47    23    45 1   
    48    24    46 1   
    49    24    47 1   
    50    24    48 1   
@<TRIPOS>SUBSTRUCTURE
     1 VSP         1 TEMP              0 ****  ****    0 ROOT
