@<TRIPOS>MOLECULE
VSP
   48    50     1     0     0
SMALL
No Charge or Current Charge


@<TRIPOS>ATOM
      1 C10         -9.4280    42.0840   -30.9300 cc         1 VSP       0.386900
      2 C13        -11.7850    44.1300   -33.0640 ca         1 VSP      -0.129000
      3 C17        -10.9970    47.3530   -34.2750 c3         1 VSP      -0.349400
      4 C21        -12.0030    43.1630   -35.2770 ca         1 VSP      -0.144000
      5 C22        -11.3860    41.9850   -34.8250 ca         1 VSP      -0.086000
      6 O20        -13.3540    47.7440   -35.4580 o          1 VSP      -0.531000
      7 N01         -8.3700    44.4980   -32.6270 nv         1 VSP      -1.072900
      8 C11        -10.7070    42.8570   -31.1440 c3         1 VSP      -0.049400
      9 C02         -7.6040    43.5080   -32.1280 ca         1 VSP       0.457900
     10 C12        -11.1570    42.9560   -32.6010 ca         1 VSP      -0.068300
     11 C03         -8.1080    42.4430   -31.3910 ca         1 VSP      -0.390900
     12 C23        -10.9660    41.8800   -33.4900 ca         1 VSP      -0.102000
     13 N24         -5.9340    41.5180   -31.2040 nb         1 VSP      -0.236000
     14 C04         -7.2560    41.4720   -30.9490 ca         1 VSP       0.167500
     15 C14        -12.2050    44.2450   -34.4050 ca         1 VSP       0.252000
     16 N05         -8.0600    40.5780   -30.2660 na         1 VSP      -0.034100
     17 N15        -12.8240    45.3870   -34.9090 nu         1 VSP      -0.878100
     18 C25         -5.5190    42.5880   -31.9230 ca         1 VSP       0.194900
     19 N26         -6.2950    43.5910   -32.4020 nb         1 VSP      -0.311000
     20 C06         -7.5450    39.3460   -29.6240 c3         1 VSP       0.112300
     21 S16        -12.7520    46.9600   -34.3790 s6         1 VSP       1.203100
     22 C07         -8.1280    38.0720   -30.2750 c3         1 VSP      -0.103100
     23 C08         -7.7600    39.3600   -28.0940 c3         1 VSP      -0.103100
     24 C18        -10.2230    47.1600   -35.6030 c3         1 VSP      -0.065100
     25 N09         -9.4070    40.9370   -30.2390 nd         1 VSP      -0.522100
     26 O19        -13.3380    46.9740   -33.0370 o          1 VSP      -0.531000
     27 H13        -11.9540    44.9450   -32.3670 ha         1 VSP       0.150000
     28 H17        -10.9450    48.3970   -33.9490 h1         1 VSP       0.099700
     29 H17A       -10.5820    46.7130   -33.4900 h1         1 VSP       0.099700
     30 H21        -12.3250    43.2320   -36.3130 ha         1 VSP       0.115000
     31 H22        -11.2370    41.1520   -35.5090 ha         1 VSP       0.122000
     32 HN01        -7.9310    45.1140   -33.3050 hn         1 VSP       0.503000
     33 HN0A        -9.3490    44.2930   -32.7890 hn         1 VSP       0.503000
     34 H11        -11.5090    42.3950   -30.5570 hc         1 VSP       0.075200
     35 H11A       -10.5740    43.8570   -30.7160 hc         1 VSP       0.075200
     36 H23        -10.4960    40.9580   -33.1520 ha         1 VSP       0.132000
     37 HN15       -12.9830    45.4410   -35.9060 hn         1 VSP       0.492000
     38 H25         -4.4540    42.6470   -32.1400 h5         1 VSP       0.046100
     39 H06         -6.4610    39.3180   -29.7900 h1         1 VSP       0.081700
     40 H07         -7.6760    37.1730   -29.8380 hc         1 VSP       0.048700
     41 H07A        -9.2130    38.0170   -30.1270 hc         1 VSP       0.048700
     42 H07B        -7.9260    38.0650   -31.3520 hc         1 VSP       0.048700
     43 H08         -7.3020    38.4780   -27.6310 hc         1 VSP       0.048700
     44 H08A        -7.3030    40.2530   -27.6510 hc         1 VSP       0.048700
     45 H08B        -8.8290    39.3620   -27.8480 hc         1 VSP       0.048700
     46 H18         -9.1710    47.4430   -35.4740 hc         1 VSP       0.048367
     47 H18A       -10.2520    46.1140   -35.9310 hc         1 VSP       0.048367
     48 H18B       -10.6450    47.7860   -36.3990 hc         1 VSP       0.048367
@<TRIPOS>BOND
     1     1     8 1   
     2     1    11 1   
     3     1    25 2   
     4     2    10 ar  
     5     2    15 ar  
     6     2    27 1   
     7     3    21 1   
     8     3    24 1   
     9     3    28 1   
    10     3    29 1   
    11     4     5 ar  
    12     4    15 ar  
    13     4    30 1   
    14     5    12 ar  
    15     5    31 1   
    16     6    21 2   
    17     7     9 1   
    18     7    32 1   
    19     7    33 1   
    20     8    10 1   
    21     8    34 1   
    22     8    35 1   
    23     9    11 ar  
    24     9    19 ar  
    25    10    12 ar  
    26    11    14 ar  
    27    12    36 1   
    28    13    14 ar  
    29    13    18 ar  
    30    14    16 1   
    31    15    17 1   
    32    16    20 1   
    33    16    25 1   
    34    17    21 1   
    35    17    37 1   
    36    18    19 ar  
    37    18    38 1   
    38    20    22 1   
    39    20    23 1   
    40    20    39 1   
    41    21    26 2   
    42    22    40 1   
    43    22    41 1   
    44    22    42 1   
    45    23    43 1   
    46    23    44 1   
    47    23    45 1   
    48    24    46 1   
    49    24    47 1   
    50    24    48 1   
@<TRIPOS>SUBSTRUCTURE
     1 VSP         1 TEMP              0 ****  ****    0 ROOT
