@<TRIPOS>MOLECULE
VSQ
   21    21     1     0     0
SMALL
abcg2


@<TRIPOS>ATOM
      1 N1          -3.7730    15.4500   -36.6420 nt         1 VSQ      -0.594000
      2 C7          -4.1570    15.1460   -35.3960 c          1 VSQ       0.584100
      3 C1           1.0850    12.9770   -35.7020 ca         1 VSQ      -0.070000
      4 C5          -0.9450    11.7010   -35.7200 ca         1 VSQ      -0.070000
      5 C6          -3.0590    15.1870   -34.3320 c3         1 VSQ       0.125800
      6 C4          -1.6710    12.8320   -35.3590 ca         1 VSQ      -0.177000
      7 C3          -1.0180    14.0570   -35.1630 ca         1 VSQ       0.299000
      8 C2           0.3740    14.1100   -35.3420 ca         1 VSQ      -0.177000
      9 O           -5.3140    14.8740   -35.0790 o          1 VSQ      -0.618100
     10 N           -1.7090    15.2150   -34.8380 nu         1 VSQ      -0.979200
     11 C            0.4320    11.7590   -35.8960 ca         1 VSQ      -0.153000
     12 H1          -4.4440    15.4570   -37.3940 hn         1 VSQ       0.323500
     13 H2          -2.8050    15.6550   -36.8320 hn         1 VSQ       0.323500
     14 H4          -1.4710    10.7650   -35.8650 ha         1 VSQ       0.111500
     15 H5          -3.2300    16.0960   -33.7540 h1         1 VSQ       0.070200
     16 H6          -3.2380    14.3420   -33.6590 h1         1 VSQ       0.070200
     17 H7          -2.7420    12.7550   -35.2350 ha         1 VSQ       0.114000
     18 H8           0.8890    15.0530   -35.1930 ha         1 VSQ       0.114000
     19 H9          -1.1390    15.9770   -34.5080 hn         1 VSQ       0.476000
     20 H10          0.9890    10.8750   -36.1780 ha         1 VSQ       0.115000
     21 H3           2.1580    13.0440   -35.8310 ha         1 VSQ       0.111500
@<TRIPOS>BOND
     1     1     2 1   
     2     1    12 1   
     3     1    13 1   
     4     2     5 1   
     5     2     9 2   
     6     3     8 ar  
     7     3    11 ar  
     8     3    21 1   
     9     4     6 ar  
    10     4    11 ar  
    11     4    14 1   
    12     5    10 1   
    13     5    15 1   
    14     5    16 1   
    15     6     7 ar  
    16     6    17 1   
    17     7     8 ar  
    18     7    10 1   
    19     8    18 1   
    20    10    19 1   
    21    11    20 1   
@<TRIPOS>SUBSTRUCTURE
     1 VSQ         1 TEMP              0 ****  ****    0 ROOT
