@<TRIPOS>MOLECULE
VSQ
   21    21     1     0     0
SMALL
No Charge or Current Charge


@<TRIPOS>ATOM
      1 N1          -3.6570    15.7080   -36.6690 nt         1 VSQ      -0.594000
      2 C7          -4.0560    15.0540   -35.5530 c          1 VSQ       0.584100
      3 C1           1.0200    12.9840   -35.9180 ca         1 VSQ      -0.070000
      4 C5          -0.9430    11.5920   -35.5600 ca         1 VSQ      -0.070000
      5 C6          -3.1630    15.2440   -34.2810 c3         1 VSQ       0.125800
      6 C4          -1.6430    12.7080   -35.0680 ca         1 VSQ      -0.177000
      7 C3          -1.0150    13.9660   -35.0020 ca         1 VSQ       0.299000
      8 C2           0.3170    14.0970   -35.4250 ca         1 VSQ      -0.177000
      9 O           -5.0620    14.3590   -35.5800 o          1 VSQ      -0.618100
     10 N           -1.6850    15.0940   -34.5180 nu         1 VSQ      -0.979200
     11 C            0.3880    11.7310   -35.9860 ca         1 VSQ      -0.153000
     12 H1          -4.1870    15.6090   -37.5210 hn         1 VSQ       0.323500
     13 H2          -2.8000    16.2400   -36.6490 hn         1 VSQ       0.323500
     14 H4          -1.4320    10.6210   -35.6090 ha         1 VSQ       0.111500
     15 H5          -3.3770    16.2490   -33.8940 h1         1 VSQ       0.070200
     16 H6          -3.5060    14.5220   -33.5270 h1         1 VSQ       0.070200
     17 H7          -2.6690    12.5840   -34.7360 ha         1 VSQ       0.114000
     18 H8           0.8110    15.0640   -35.3760 ha         1 VSQ       0.114000
     19 H9          -1.1120    15.9380   -34.4320 hn         1 VSQ       0.476000
     20 H10          0.9310    10.8680   -36.3660 ha         1 VSQ       0.115000
     21 H3           2.0520    13.0930   -36.2470 ha         1 VSQ       0.111500
@<TRIPOS>BOND
     1     1     2 1   
     2     1    12 1   
     3     1    13 1   
     4     2     5 1   
     5     2     9 2   
     6     3     8 ar  
     7     3    11 ar  
     8     3    21 1   
     9     4     6 ar  
    10     4    11 ar  
    11     4    14 1   
    12     5    10 1   
    13     5    15 1   
    14     5    16 1   
    15     6     7 ar  
    16     6    17 1   
    17     7     8 ar  
    18     7    10 1   
    19     8    18 1   
    20    10    19 1   
    21    11    20 1   
@<TRIPOS>SUBSTRUCTURE
     1 VSQ         1 TEMP              0 ****  ****    0 ROOT
