@<TRIPOS>MOLECULE
VSV
   53    55     1     0     0
SMALL
No Charge or Current Charge


@<TRIPOS>ATOM
      1 OE1          7.7230     2.6130     3.2590 o          1 VSV      -0.759500
      2 CD           7.0890     2.6450     2.2160 c          1 VSV       0.713000
      3 OE2          6.9850     3.6460     1.5220 o          1 VSV      -0.759500
      4 CG           6.4430     1.3400     1.7140 c3         1 VSV      -0.201400
      5 CB           7.4450     0.5560     0.8260 c3         1 VSV      -0.054400
      6 C            8.0640    -1.6090    -0.4060 c          1 VSV       0.717000
      7 O            8.3280    -1.2780    -1.5550 o          1 VSV      -0.740000
      8 OXT          8.5710    -2.5760     0.1440 o          1 VSV      -0.740000
      9 N            5.7330    -0.7330    -0.5020 ns         1 VSV      -0.412900
     10 CAU          4.4280    -0.9040    -0.0790 c          1 VSV       0.593700
     11 OBC          4.1640    -1.2050     1.0800 o          1 VSV      -0.638100
     12 CAT          3.3450    -0.7100    -1.1240 ca         1 VSV      -0.107600
     13 CAQ          1.9900    -0.8850    -0.7580 ca         1 VSV      -0.053000
     14 CAS          3.6410    -0.3540    -2.4640 ca         1 VSV      -0.070000
     15 CAR          2.6070    -0.1830    -3.4000 ca         1 VSV      -0.131000
     16 CAP          1.2690    -0.3620    -3.0210 ca         1 VSV      -0.109000
     17 CAO          0.9530    -0.7150    -1.6970 ca         1 VSV      -0.153300
     18 CAN         -0.4960    -0.9100    -1.2800 c3         1 VSV       0.274100
     19 NAY         -1.0220     0.3520    -0.7560 nu         1 VSV      -0.938200
     20 CAA         -2.3200     0.6120    -0.3260 ca         1 VSV       0.393000
     21 CAC         -2.7050     1.9390    -0.1010 ca         1 VSV      -0.221000
     22 CAE         -4.0070     2.2380     0.3350 ca         1 VSV      -0.006500
     23 CAB         -3.2410    -0.4230    -0.1040 ca         1 VSV      -0.221000
     24 CAG         -4.5450    -0.1320     0.3310 ca         1 VSV      -0.006500
     25 CAF         -4.9400     1.2040     0.5420 ca         1 VSV      -0.199800
     26 CAH         -6.3130     1.5430     1.0160 ce         1 VSV       0.037800
     27 CAI         -7.5330     1.0370     0.6170 cd         1 VSV      -0.188600
     28 SBG         -7.7140    -0.2080    -0.6300 ss         1 VSV      -0.183200
     29 CAL         -9.5210    -0.1460    -0.4780 c          1 VSV       0.590600
     30 NAX         -9.8060     0.7860     0.4710 ns         1 VSV      -0.483500
     31 CA           6.9430    -0.8350     0.3510 c3         1 VSV      -0.053300
     32 CAK         -8.8430     1.4870     1.1220 c          1 VSV       0.592200
     33 OBE         -9.0590     2.3360     1.9710 o          1 VSV      -0.518000
     34 OBH        -10.3440    -0.8020    -1.0950 o          1 VSV      -0.495000
     35 HG1C         6.2100     0.6780     2.5580 hc         1 VSV       0.008200
     36 HG2C         5.5790     1.5630     1.0770 hc         1 VSV       0.008200
     37 HB1C         7.7050     1.1650    -0.0490 hc         1 VSV       0.051700
     38 HB2C         8.3740     0.4110     1.3910 hc         1 VSV       0.051700
     39 HA           6.6950    -1.4310     1.2380 h1         1 VSV       0.059700
     40 HB           5.8710    -0.5190    -1.4810 hn         1 VSV       0.298500
     41 HAQ          1.7360    -1.1540     0.2660 ha         1 VSV       0.142000
     42 HAS          4.6640    -0.2050    -2.7980 ha         1 VSV       0.138000
     43 HAR          2.8460     0.0910    -4.4260 ha         1 VSV       0.105000
     44 HAP          0.4780    -0.2240    -3.7550 ha         1 VSV       0.090000
     45 HAN1        -1.0880    -1.2370    -2.1460 h1         1 VSV       0.043700
     46 HAN2        -0.5560    -1.6960    -0.5140 h1         1 VSV       0.043700
     47 HAY         -0.4290     1.1710    -0.8840 hn         1 VSV       0.503000
     48 HAC         -1.9980     2.7470    -0.2630 ha         1 VSV       0.122500
     49 HAB         -2.9550    -1.4580    -0.2590 ha         1 VSV       0.122500
     50 HAE         -4.2930     3.2740     0.5040 ha         1 VSV       0.109500
     51 HAG         -5.2380    -0.9480     0.5180 ha         1 VSV       0.109500
     52 HAH         -6.3590     2.3460     1.7550 ha         1 VSV       0.189000
     53 HAX        -10.7710     0.9680     0.6960 hn         1 VSV       0.338500
@<TRIPOS>BOND
     1     1     2 1   
     2     2     3 1   
     3     2     4 1   
     4     4     5 1   
     5     4    35 1   
     6     4    36 1   
     7     5    31 1   
     8     5    37 1   
     9     5    38 1   
    10     6     7 1   
    11     6     8 1   
    12     6    31 1   
    13     9    10 1   
    14     9    31 1   
    15     9    40 1   
    16    10    11 2   
    17    10    12 1   
    18    12    13 ar  
    19    12    14 ar  
    20    13    17 ar  
    21    13    41 1   
    22    14    15 ar  
    23    14    42 1   
    24    15    16 ar  
    25    15    43 1   
    26    16    17 ar  
    27    16    44 1   
    28    17    18 1   
    29    18    19 1   
    30    18    45 1   
    31    18    46 1   
    32    19    20 1   
    33    19    47 1   
    34    20    21 ar  
    35    20    23 ar  
    36    21    22 ar  
    37    21    48 1   
    38    22    25 ar  
    39    22    50 1   
    40    23    24 ar  
    41    23    49 1   
    42    24    25 ar  
    43    24    51 1   
    44    25    26 1   
    45    26    27 2   
    46    26    52 1   
    47    27    28 1   
    48    27    32 1   
    49    28    29 1   
    50    29    30 1   
    51    29    34 2   
    52    30    32 1   
    53    30    53 1   
    54    31    39 1   
    55    32    33 2   
@<TRIPOS>SUBSTRUCTURE
     1 VSV         1 TEMP              0 ****  ****    0 ROOT
