@<TRIPOS>MOLECULE
VSV
   53    55     1     0     0
SMALL
abcg2


@<TRIPOS>ATOM
      1 OE1          9.5760     2.4510     0.4370 o          1 VSV      -0.759500
      2 CD           9.2800     1.2370     0.4330 c          1 VSV       0.713000
      3 OE2         10.0630     0.2890     0.2290 o          1 VSV      -0.759500
      4 CG           7.8010     0.9060     0.6990 c3         1 VSV      -0.201400
      5 CB           7.4660    -0.5730     0.8150 c3         1 VSV      -0.054400
      6 C            5.7290    -2.3430     1.3810 c          1 VSV       0.717000
      7 O            4.9840    -2.9400     0.5850 o          1 VSV      -0.740000
      8 OXT          6.3120    -2.8240     2.3730 o          1 VSV      -0.740000
      9 N            5.1620    -0.2910     0.0860 ns         1 VSV      -0.412900
     10 CAU          3.8740     0.0200     0.2750 c          1 VSV       0.593700
     11 OBC          3.3240    -0.0220     1.3700 o          1 VSV      -0.638100
     12 CAT          3.1190     0.4710    -0.9390 ca         1 VSV      -0.107600
     13 CAQ          1.7350     0.3470    -0.9300 ca         1 VSV      -0.053000
     14 CAS          3.7450     1.0390    -2.0480 ca         1 VSV      -0.070000
     15 CAR          2.9900     1.4620    -3.1300 ca         1 VSV      -0.131000
     16 CAP          1.6090     1.3250    -3.1140 ca         1 VSV      -0.109000
     17 CAO          0.9700     0.7620    -2.0150 ca         1 VSV      -0.153300
     18 CAN         -0.5260     0.5990    -1.9980 c3         1 VSV       0.274100
     19 NAY         -1.0900     1.2140    -0.8190 nu         1 VSV      -0.938200
     20 CAA         -2.3730     1.0630    -0.4200 ca         1 VSV       0.393000
     21 CAC         -2.8480     1.7860     0.6930 ca         1 VSV      -0.221000
     22 CAE         -4.1380     1.6250     1.1320 ca         1 VSV      -0.006500
     23 CAB         -3.2680     0.1900    -1.0670 ca         1 VSV      -0.221000
     24 CAG         -4.5600     0.0410    -0.6130 ca         1 VSV      -0.006500
     25 CAF         -5.0410     0.7490     0.4990 ca         1 VSV      -0.199800
     26 CAH         -6.3710     0.6620     1.0360 ce         1 VSV       0.037800
     27 CAI         -7.4540    -0.0390     0.6450 cd         1 VSV      -0.188600
     28 SBG         -7.6180    -1.1290    -0.7230 ss         1 VSV      -0.183200
     29 CAL         -9.3210    -1.4460    -0.3420 c          1 VSV       0.590600
     30 NAX         -9.6740    -0.7380     0.7700 ns         1 VSV      -0.483500
     31 CA           5.9940    -0.8350     1.1350 c3         1 VSV      -0.053300
     32 CAK         -8.7250     0.0560     1.3800 c          1 VSV       0.592200
     33 OBE         -8.9430     0.7190     2.3690 o          1 VSV      -0.518000
     34 OBH        -10.0270    -2.1740    -0.9850 o          1 VSV      -0.495000
     35 HG1C         7.4890     1.4230     1.6140 hc         1 VSV       0.008200
     36 HG2C         7.2040     1.3640    -0.0980 hc         1 VSV       0.008200
     37 HB1C         7.7380    -1.0940    -0.1080 hc         1 VSV       0.051700
     38 HB2C         8.0640    -1.0280     1.6060 hc         1 VSV       0.051700
     39 HA           5.7450    -0.3060     2.0580 h1         1 VSV       0.059700
     40 HB           5.4770    -0.4410    -0.8590 hn         1 VSV       0.298500
     41 HAQ          1.2480    -0.0850    -0.0640 ha         1 VSV       0.142000
     42 HAS          4.8180     1.1850    -2.0680 ha         1 VSV       0.138000
     43 HAR          3.4780     1.9150    -3.9830 ha         1 VSV       0.105000
     44 HAP          1.0250     1.6670    -3.9600 ha         1 VSV       0.090000
     45 HAN1        -0.9550     1.0170    -2.9160 h1         1 VSV       0.043700
     46 HAN2        -0.7680    -0.4680    -1.9960 h1         1 VSV       0.043700
     47 HAY         -0.5730     1.9790    -0.4160 hn         1 VSV       0.503000
     48 HAC         -2.1840     2.4690     1.2080 ha         1 VSV       0.122500
     49 HAB         -2.9570    -0.3730    -1.9370 ha         1 VSV       0.122500
     50 HAE         -4.4700     2.1900     1.9950 ha         1 VSV       0.109500
     51 HAG         -5.1910    -0.6490    -1.1540 ha         1 VSV       0.109500
     52 HAH         -6.5400     1.2730     1.9180 ha         1 VSV       0.189000
     53 HAX        -10.6200    -0.7940     1.1290 hn         1 VSV       0.338500
@<TRIPOS>BOND
     1     1     2 1   
     2     2     3 1   
     3     2     4 1   
     4     4     5 1   
     5     4    35 1   
     6     4    36 1   
     7     5    31 1   
     8     5    37 1   
     9     5    38 1   
    10     6     7 1   
    11     6     8 1   
    12     6    31 1   
    13     9    10 1   
    14     9    31 1   
    15     9    40 1   
    16    10    11 2   
    17    10    12 1   
    18    12    13 ar  
    19    12    14 ar  
    20    13    17 ar  
    21    13    41 1   
    22    14    15 ar  
    23    14    42 1   
    24    15    16 ar  
    25    15    43 1   
    26    16    17 ar  
    27    16    44 1   
    28    17    18 1   
    29    18    19 1   
    30    18    45 1   
    31    18    46 1   
    32    19    20 1   
    33    19    47 1   
    34    20    21 ar  
    35    20    23 ar  
    36    21    22 ar  
    37    21    48 1   
    38    22    25 ar  
    39    22    50 1   
    40    23    24 ar  
    41    23    49 1   
    42    24    25 ar  
    43    24    51 1   
    44    25    26 1   
    45    26    27 2   
    46    26    52 1   
    47    27    28 1   
    48    27    32 1   
    49    28    29 1   
    50    29    30 1   
    51    29    34 2   
    52    30    32 1   
    53    30    53 1   
    54    31    39 1   
    55    32    33 2   
@<TRIPOS>SUBSTRUCTURE
     1 VSV         1 TEMP              0 ****  ****    0 ROOT
