@<TRIPOS>MOLECULE
VSX
   21    21     1     0     0
SMALL
No Charge or Current Charge


@<TRIPOS>ATOM
      1 N1          -3.6300    13.4930   -33.6180 nv         1 VSX      -1.076000
      2 C7          -2.3980    13.4920   -34.2190 ca         1 VSX       0.302000
      3 C1          -2.4110    17.1520   -35.0040 c          1 VSX       0.607100
      4 C5          -0.5130    12.2210   -35.0990 ca         1 VSX      -0.053000
      5 C6          -1.7730    12.2620   -34.4770 ca         1 VSX      -0.174000
      6 C4           0.1270    13.4170   -35.4550 ca         1 VSX       0.077000
      7 C3          -0.4910    14.6530   -35.2000 ca         1 VSX      -0.061000
      8 C2          -1.7660    14.7020   -34.5940 ca         1 VSX      -0.122000
      9 Cl           1.7140    13.3710   -36.2120 cl         1 VSX      -0.208000
     10 N           -2.3910    15.9520   -34.3060 ns         1 VSX      -0.185000
     11 O           -2.7750    18.1880   -34.4620 o          1 VSX      -0.604100
     12 C           -2.0750    17.1160   -36.4980 c3         1 VSX      -0.173100
     13 H1          -4.1330    12.6140   -33.5110 hn         1 VSX       0.463500
     14 H2          -4.1900    14.3420   -33.6300 hn         1 VSX       0.463500
     15 H3          -0.0310    11.2660   -35.2960 ha         1 VSX       0.131000
     16 H4          -2.2610    11.3320   -34.1960 ha         1 VSX       0.122000
     17 H5           0.0430    15.5640   -35.4530 ha         1 VSX       0.137000
     18 H6          -2.7760    16.0130   -33.3720 hn         1 VSX       0.154000
     19 H7          -2.5630    17.9340   -37.0390 hc         1 VSX       0.065700
     20 H8          -0.9920    17.2200   -36.6120 hc         1 VSX       0.065700
     21 H9          -2.3080    16.1360   -36.9280 hc         1 VSX       0.065700
@<TRIPOS>BOND
     1     1     2 1   
     2     1    13 1   
     3     1    14 1   
     4     2     5 ar  
     5     2     8 ar  
     6     3    10 1   
     7     3    11 2   
     8     3    12 1   
     9     4     5 ar  
    10     4     6 ar  
    11     4    15 1   
    12     5    16 1   
    13     6     7 ar  
    14     6     9 1   
    15     7     8 ar  
    16     7    17 1   
    17     8    10 1   
    18    10    18 1   
    19    12    19 1   
    20    12    20 1   
    21    12    21 1   
@<TRIPOS>SUBSTRUCTURE
     1 VSX         1 TEMP              0 ****  ****    0 ROOT
