@<TRIPOS>MOLECULE
VSX
   21    21     1     0     0
SMALL
abcg2


@<TRIPOS>ATOM
      1 N1          -3.7150    13.8360   -34.1800 nv         1 VSX      -1.076000
      2 C7          -2.3750    13.6890   -34.4720 ca         1 VSX       0.302000
      3 C1          -2.4980    17.0240   -34.9770 c          1 VSX       0.607100
      4 C5          -0.5150    12.2990   -35.1880 ca         1 VSX      -0.053000
      5 C6          -1.8440    12.4400   -34.8260 ca         1 VSX      -0.174000
      6 C4           0.3140    13.4140   -35.1990 ca         1 VSX       0.077000
      7 C3          -0.1770    14.6600   -34.8470 ca         1 VSX      -0.061000
      8 C2          -1.5120    14.8010   -34.4880 ca         1 VSX      -0.122000
      9 CL           2.0000    13.2430   -35.6580 cl         1 VSX      -0.208000
     10 N           -2.0150    16.0830   -34.1220 ns         1 VSX      -0.185000
     11 O           -2.8880    18.1130   -34.5610 o          1 VSX      -0.604100
     12 C           -2.5150    16.6650   -36.4410 c3         1 VSX      -0.173100
     13 H1          -4.1980    13.0020   -33.8810 hn         1 VSX       0.463500
     14 H2          -3.9680    14.6570   -33.6520 hn         1 VSX       0.463500
     15 H3          -0.1260    11.3270   -35.4580 ha         1 VSX       0.131000
     16 H4          -2.4920    11.5710   -34.8180 ha         1 VSX       0.122000
     17 H5           0.4630    15.5310   -34.8510 ha         1 VSX       0.137000
     18 H6          -1.9990    16.3480   -33.1450 hn         1 VSX       0.154000
     19 H7          -3.0960    17.4100   -36.9790 hc         1 VSX       0.065700
     20 H8          -1.4960    16.6540   -36.8330 hc         1 VSX       0.065700
     21 H9          -2.9390    15.6730   -36.6030 hc         1 VSX       0.065700
@<TRIPOS>BOND
     1     1     2 1   
     2     1    13 1   
     3     1    14 1   
     4     2     5 ar  
     5     2     8 ar  
     6     3    10 1   
     7     3    11 2   
     8     3    12 1   
     9     4     5 ar  
    10     4     6 ar  
    11     4    15 1   
    12     5    16 1   
    13     6     7 ar  
    14     6     9 1   
    15     7     8 ar  
    16     7    17 1   
    17     8    10 1   
    18    10    18 1   
    19    12    19 1   
    20    12    20 1   
    21    12    21 1   
@<TRIPOS>SUBSTRUCTURE
     1 VSX         1 TEMP              0 ****  ****    0 ROOT
