@<TRIPOS>MOLECULE
VSY
   39    41     1     0     0
SMALL
abcg2


@<TRIPOS>ATOM
      1 N1         -21.2790   -29.7280    14.0230 nv         1 VSY      -1.066900
      2 N3         -19.4340   -26.0660    11.9860 na         1 VSY       0.055100
      3 C4         -20.5790   -26.8030    12.2830 ca         1 VSY       0.290500
      4 C5         -18.1360   -26.2930    12.3570 ca         1 VSY       0.019800
      5 C6         -17.3950   -25.2470    11.7940 ca         1 VSY      -0.297900
      6 C7         -18.3510   -24.4500    11.1040 cc         1 VSY       0.393800
      7 C8         -16.0170   -25.2030    12.0060 ca         1 VSY       0.413900
      8 C13        -13.9620   -31.1900    14.6650 c3         1 VSY      -0.118100
      9 C15        -15.1630   -29.0010    17.6660 c3         1 VSY      -0.086100
     10 C1         -21.4740   -28.6110    13.3070 ca         1 VSY       0.411900
     11 C11        -14.8040   -28.8950    14.6860 c1         1 VSY      -0.078100
     12 C12        -14.1170   -29.9100    15.4930 c3         1 VSY       0.270100
     13 C14        -14.9390   -30.2020    16.7620 c3         1 VSY      -0.099400
     14 C16        -17.4960   -27.2710    13.1160 ca         1 VSY      -0.125000
     15 C2         -22.8720   -27.2250    12.2080 ca         1 VSY       0.160900
     16 C3         -21.8310   -26.3960    11.8320 ca         1 VSY      -0.275000
     17 C9         -16.1250   -27.1210    13.2560 ca         1 VSY       0.490000
     18 N2         -22.7240   -28.3220    12.9330 nb         1 VSY      -0.256000
     19 N4         -19.5410   -24.9490    11.2310 nd         1 VSY      -0.506100
     20 N5         -15.3990   -26.1170    12.7180 nb         1 VSY      -0.667000
     21 N6         -20.3910   -27.8850    13.0060 nb         1 VSY      -0.302000
     22 O1         -12.8530   -29.3600    15.8110 oh         1 VSY      -0.640000
     23 H1         -20.3800   -29.9080    14.4350 hn         1 VSY       0.502500
     24 H2         -22.0710   -30.2300    14.3820 hn         1 VSY       0.502500
     25 H3         -18.1890   -23.5470    10.5350 h4         1 VSY       0.058800
     26 H4         -15.4130   -24.4060    11.5850 h4         1 VSY       0.028100
     27 H5         -13.4480   -31.9510    15.2550 hc         1 VSY       0.047367
     28 H6         -14.9330   -31.5890    14.3730 hc         1 VSY       0.047367
     29 H7         -13.3820   -31.0020    13.7620 hc         1 VSY       0.047367
     30 H8         -15.7240   -29.2960    18.5530 hc         1 VSY       0.039700
     31 H9         -14.2210   -28.5680    18.0030 hc         1 VSY       0.039700
     32 H10        -15.7330   -28.2190    17.1630 hc         1 VSY       0.039700
     33 H11        -15.8990   -30.6270    16.4590 hc         1 VSY       0.042700
     34 H12        -14.4180   -30.9920    17.3140 hc         1 VSY       0.042700
     35 H13        -18.0180   -28.0960    13.5710 ha         1 VSY       0.157000
     36 H14        -23.8850   -26.9840    11.9030 h4         1 VSY       0.026100
     37 H15        -21.9900   -25.5100    11.2410 ha         1 VSY       0.161000
     38 H16        -12.3840   -30.0010    16.3600 ho         1 VSY       0.443000
     39 C10        -15.3990   -28.0820    14.0270 cg         1 VSY      -0.215000
@<TRIPOS>BOND
     1     1    10 1   
     2     1    23 1   
     3     1    24 1   
     4     2     3 1   
     5     2     4 1   
     6     2    19 1   
     7     3    16 ar  
     8     3    21 ar  
     9     4     5 ar  
    10     4    14 ar  
    11     5     6 1   
    12     5     7 ar  
    13     6    19 2   
    14     6    25 1   
    15     7    20 ar  
    16     7    26 1   
    17     8    12 1   
    18     8    27 1   
    19     8    28 1   
    20     8    29 1   
    21     9    13 1   
    22     9    30 1   
    23     9    31 1   
    24     9    32 1   
    25    10    18 ar  
    26    10    21 ar  
    27    11    12 1   
    28    11    39 3   
    29    12    13 1   
    30    12    22 1   
    31    13    33 1   
    32    13    34 1   
    33    14    17 ar  
    34    14    35 1   
    35    15    16 ar  
    36    15    18 ar  
    37    15    36 1   
    38    16    37 1   
    39    17    20 ar  
    40    17    39 1   
    41    22    38 1   
@<TRIPOS>SUBSTRUCTURE
     1 VSY         1 TEMP              0 ****  ****    0 ROOT
