@<TRIPOS>MOLECULE
VSY
   39    41     1     0     0
SMALL
No Charge or Current Charge


@<TRIPOS>ATOM
      1 N1         -22.0220   -29.5930    13.7430 nv         1 VSY      -1.066900
      2 N3         -19.4150   -26.2530    11.6980 na         1 VSY       0.055100
      3 C4         -20.5010   -26.6970    12.4620 ca         1 VSY       0.290500
      4 C5         -18.1000   -26.5410    11.9950 ca         1 VSY       0.019800
      5 C6         -17.3530   -25.9560    11.0310 ca         1 VSY      -0.297900
      6 C7         -18.2780   -25.3040    10.1430 cc         1 VSY       0.393800
      7 C8         -15.9600   -26.0460    11.0320 ca         1 VSY       0.413900
      8 C13        -12.6230   -29.7170    15.4670 c3         1 VSY      -0.118100
      9 C15        -16.2860   -30.5400    16.7730 c3         1 VSY      -0.086100
     10 C1         -21.8130   -28.2830    13.4840 ca         1 VSY       0.411900
     11 C11        -14.7560   -28.6330    14.8680 c1         1 VSY      -0.078100
     12 C12        -14.0670   -29.4040    15.9180 c3         1 VSY       0.270100
     13 C14        -14.8370   -30.7170    16.2520 c3         1 VSY      -0.099400
     14 C16        -17.4870   -27.2520    13.0290 ca         1 VSY      -0.125000
     15 C2         -22.4820   -26.1260    13.7360 ca         1 VSY       0.160900
     16 C3         -21.3840   -25.7160    12.9640 ca         1 VSY      -0.275000
     17 C9         -16.0770   -27.3170    12.9860 ca         1 VSY       0.490000
     18 N2         -22.7010   -27.4260    14.0010 nb         1 VSY      -0.256000
     19 N4         -19.5520   -25.4770    10.5400 nd         1 VSY      -0.506100
     20 N5         -15.3210   -26.7310    12.0150 nb         1 VSY      -0.667000
     21 N6         -20.7380   -28.0000    12.7400 nb         1 VSY      -0.302000
     22 O1         -13.9840   -28.6070    17.1000 oh         1 VSY      -0.640000
     23 H1         -21.2620   -30.2460    13.5640 hn         1 VSY       0.502500
     24 H2         -22.6760   -29.8450    14.4810 hn         1 VSY       0.502500
     25 H3         -18.1090   -24.7230     9.2470 h4         1 VSY       0.058800
     26 H4         -15.3500   -25.5770    10.2610 h4         1 VSY       0.028100
     27 H5         -12.0810   -30.2760    16.2390 hc         1 VSY       0.047367
     28 H6         -12.6230   -30.3230    14.5520 hc         1 VSY       0.047367
     29 H7         -12.0650   -28.7940    15.2620 hc         1 VSY       0.047367
     30 H8         -16.7270   -31.5180    17.0010 hc         1 VSY       0.039700
     31 H9         -16.3060   -29.9400    17.6910 hc         1 VSY       0.039700
     32 H10        -16.9220   -30.0520    16.0260 hc         1 VSY       0.039700
     33 H11        -14.8680   -31.3490    15.3550 hc         1 VSY       0.042700
     34 H12        -14.2700   -31.2840    17.0010 hc         1 VSY       0.042700
     35 H13        -18.0520   -27.7300    13.8230 ha         1 VSY       0.157000
     36 H14        -23.1910   -25.4090    14.1460 h4         1 VSY       0.026100
     37 H15        -21.2210   -24.6610    12.7580 ha         1 VSY       0.161000
     38 H16        -13.5520   -29.1630    17.7810 ho         1 VSY       0.443000
     39 C10        -15.3550   -28.0260    14.0000 cg         1 VSY      -0.215000
@<TRIPOS>BOND
     1     1    10 1   
     2     1    23 1   
     3     1    24 1   
     4     2     3 1   
     5     2     4 1   
     6     2    19 1   
     7     3    16 ar  
     8     3    21 ar  
     9     4     5 ar  
    10     4    14 ar  
    11     5     6 1   
    12     5     7 ar  
    13     6    19 2   
    14     6    25 1   
    15     7    20 ar  
    16     7    26 1   
    17     8    12 1   
    18     8    27 1   
    19     8    28 1   
    20     8    29 1   
    21     9    13 1   
    22     9    30 1   
    23     9    31 1   
    24     9    32 1   
    25    10    18 ar  
    26    10    21 ar  
    27    11    12 1   
    28    11    39 3   
    29    12    13 1   
    30    12    22 1   
    31    13    33 1   
    32    13    34 1   
    33    14    17 ar  
    34    14    35 1   
    35    15    16 ar  
    36    15    18 ar  
    37    15    36 1   
    38    16    37 1   
    39    17    20 ar  
    40    17    39 1   
    41    22    38 1   
@<TRIPOS>SUBSTRUCTURE
     1 VSY         1 TEMP              0 ****  ****    0 ROOT
