@<TRIPOS>MOLECULE
VSZ
   57    56     1     0     0
SMALL
abcg2


@<TRIPOS>ATOM
      1 C9          63.0310  -137.4740    41.5650 c3         1 VSZ       0.093300
      2 C4          62.7460  -136.2260    42.4210 c3         1 VSZ      -0.174700
      3 C5          63.7420  -135.0790    42.1750 c3         1 VSZ      -0.050700
      4 C11         61.9260  -138.5150    41.7710 c          1 VSZ       0.562100
      5 O10         64.3120  -137.9500    41.8830 oh         1 VSZ      -0.663000
      6 C6          63.8050  -134.6780    40.7050 c3         1 VSZ      -0.089600
      7 C7          63.3630  -133.8720    43.0310 c3         1 VSZ      -0.089600
      8 C1          62.7640  -136.6210    43.8770 c          1 VSZ       0.564900
      9 O3          61.7780  -136.8510    44.5330 o          1 VSZ      -0.470100
     10 N13         62.3090  -139.6410    42.3830 ns         1 VSZ      -0.480900
     11 C14         61.4140  -140.7420    42.6600 c3         1 VSZ       0.028700
     12 C18         60.6750  -140.4660    43.9720 c          1 VSZ       0.577100
     13 O19         61.2970  -140.3560    45.0230 o          1 VSZ      -0.654100
     14 C15         62.1940  -142.0610    42.7410 c3         1 VSZ      -0.066700
     15 C17         61.2630  -143.2170    43.0930 c3         1 VSZ      -0.087100
     16 C16         62.9220  -142.3470    41.4320 c3         1 VSZ      -0.087100
     17 N20         59.3500  -140.3770    43.8610 ns         1 VSZ      -0.447900
     18 C21         58.4190  -140.1650    44.9510 c3         1 VSZ      -0.029300
     19 C25         57.0310  -140.6680    44.4760 c          1 VSZ       0.717000
     20 O26         56.8080  -140.5880    43.2500 o          1 VSZ      -0.726000
     21 C22         58.4420  -138.6880    45.4140 c3         1 VSZ      -0.052700
     22 C23         57.7050  -138.4390    46.7420 c3         1 VSZ      -0.047400
     23 C24         58.0260  -137.7100    44.3210 c3         1 VSZ      -0.073100
     24 C42         56.2210  -138.1010    46.6730 c3         1 VSZ      -0.086100
     25 O27         56.2660  -141.1060    45.3530 o          1 VSZ      -0.726000
     26 H19         62.9610  -137.1800    40.5110 h1         1 VSZ       0.056700
     27 H1          61.7360  -135.8840    42.1740 hc         1 VSZ       0.098700
     28 H2          64.7370  -135.4150    42.4830 hc         1 VSZ       0.054700
     29 H20         64.6600  -138.4510    41.1390 ho         1 VSZ       0.445000
     30 H3          64.4480  -133.8050    40.5820 hc         1 VSZ       0.033200
     31 H4          64.2090  -135.4650    40.0690 hc         1 VSZ       0.033200
     32 H5          62.8140  -134.4130    40.3270 hc         1 VSZ       0.033200
     33 H6          63.3740  -134.0940    44.1010 hc         1 VSZ       0.033200
     34 H7          64.0640  -133.0530    42.8680 hc         1 VSZ       0.033200
     35 H8          62.3640  -133.5100    42.7790 hc         1 VSZ       0.033200
     36 H18         63.7700  -136.7050    44.3280 h4         1 VSZ      -0.013800
     37 H21         63.2600  -139.6980    42.7150 hn         1 VSZ       0.324500
     38 H22         60.7040  -140.8170    41.8320 h1         1 VSZ       0.078700
     39 H9          62.9370  -141.9590    43.5400 hc         1 VSZ       0.059700
     40 H10         60.7950  -143.0970    44.0700 hc         1 VSZ       0.033867
     41 H11         60.4690  -143.3210    42.3500 hc         1 VSZ       0.033867
     42 H12         61.8190  -144.1540    43.1140 hc         1 VSZ       0.033867
     43 H23         63.6320  -141.5630    41.1700 hc         1 VSZ       0.033867
     44 H24         63.4790  -143.2810    41.5040 hc         1 VSZ       0.033867
     45 H25         62.2130  -142.4460    40.6060 hc         1 VSZ       0.033867
     46 H26         58.9160  -140.4590    42.9530 hn         1 VSZ       0.344500
     47 H13         58.7390  -140.7760    45.8000 h1         1 VSZ       0.050700
     48 H14         59.4960  -138.4900    45.6290 hc         1 VSZ       0.040700
     49 H28         57.8470  -139.3060    47.3940 hc         1 VSZ       0.019200
     50 H29         58.2120  -137.6100    47.2460 hc         1 VSZ       0.019200
     51 H15         58.1300  -136.6820    44.6740 hc         1 VSZ       0.026033
     52 H16         58.6550  -137.8110    43.4360 hc         1 VSZ       0.026033
     53 H17         56.9910  -137.8460    44.0080 hc         1 VSZ       0.026033
     54 H30         55.8230  -137.9630    47.6810 hc         1 VSZ       0.028367
     55 H31         56.0420  -137.1710    46.1310 hc         1 VSZ       0.028367
     56 H32         55.6420  -138.8870    46.1970 hc         1 VSZ       0.028367
     57 O12         60.7880  -138.2940    41.3810 o          1 VSZ      -0.586100
@<TRIPOS>BOND
     1     1     2 1   
     2     1     4 1   
     3     1     5 1   
     4     1    26 1   
     5     2     3 1   
     6     2     8 1   
     7     2    27 1   
     8     3     6 1   
     9     3     7 1   
    10     3    28 1   
    11     4    10 1   
    12     4    57 2   
    13     5    29 1   
    14     6    30 1   
    15     6    31 1   
    16     6    32 1   
    17     7    33 1   
    18     7    34 1   
    19     7    35 1   
    20     8     9 2   
    21     8    36 1   
    22    10    11 1   
    23    10    37 1   
    24    11    12 1   
    25    11    14 1   
    26    11    38 1   
    27    12    13 2   
    28    12    17 1   
    29    14    15 1   
    30    14    16 1   
    31    14    39 1   
    32    15    40 1   
    33    15    41 1   
    34    15    42 1   
    35    16    43 1   
    36    16    44 1   
    37    16    45 1   
    38    17    18 1   
    39    17    46 1   
    40    18    19 1   
    41    18    21 1   
    42    18    47 1   
    43    19    20 1   
    44    19    25 1   
    45    21    22 1   
    46    21    23 1   
    47    21    48 1   
    48    22    24 1   
    49    22    49 1   
    50    22    50 1   
    51    23    51 1   
    52    23    52 1   
    53    23    53 1   
    54    24    54 1   
    55    24    55 1   
    56    24    56 1   
@<TRIPOS>SUBSTRUCTURE
     1 VSZ         1 TEMP              0 ****  ****    0 ROOT
