@<TRIPOS>MOLECULE
VSZ
   57    56     1     0     0
SMALL
No Charge or Current Charge


@<TRIPOS>ATOM
      1 C9          63.7210  -137.4710    41.7320 c3         1 VSZ       0.093300
      2 C4          63.1940  -136.0250    41.9620 c3         1 VSZ      -0.174700
      3 C5          64.2960  -134.9120    41.8820 c3         1 VSZ      -0.050700
      4 C11         62.5430  -138.4880    41.5510 c          1 VSZ       0.562100
      5 O10         64.6250  -137.8310    42.8070 oh         1 VSZ      -0.663000
      6 C6          65.0350  -134.8960    40.5200 c3         1 VSZ      -0.089600
      7 C7          63.7230  -133.5040    42.1830 c3         1 VSZ      -0.089600
      8 C1          62.4360  -135.9710    43.2990 c          1 VSZ       0.564900
      9 O3          61.2290  -135.7780    43.3760 o          1 VSZ      -0.470100
     10 N13         62.3180  -139.3170    42.6310 ns         1 VSZ      -0.480900
     11 C14         61.2440  -140.3300    42.7340 c3         1 VSZ       0.028700
     12 C18         60.5870  -140.2060    44.1430 c          1 VSZ       0.577100
     13 O19         61.2160  -139.8710    45.1420 o          1 VSZ      -0.654100
     14 C15         61.7960  -141.7650    42.4500 c3         1 VSZ      -0.066700
     15 C17         60.7140  -142.8650    42.5890 c3         1 VSZ      -0.087100
     16 C16         62.4900  -141.8760    41.0690 c3         1 VSZ      -0.087100
     17 N20         59.2350  -140.4780    44.1860 ns         1 VSZ      -0.447900
     18 C21         58.3700  -140.3740    45.3860 c3         1 VSZ      -0.029300
     19 C25         57.1390  -141.3240    45.2190 c          1 VSZ       0.717000
     20 O26         56.5310  -141.3080    44.1570 o          1 VSZ      -0.726000
     21 C22         58.0260  -138.8840    45.7220 c3         1 VSZ      -0.052700
     22 C23         57.3820  -138.6690    47.1250 c3         1 VSZ      -0.047400
     23 C24         57.2650  -138.1420    44.5930 c3         1 VSZ      -0.073100
     24 C42         55.8840  -139.0200    47.2740 c3         1 VSZ      -0.086100
     25 O27         56.9660  -142.1900    46.0670 o          1 VSZ      -0.726000
     26 H19         64.2610  -137.5000    40.7770 h1         1 VSZ       0.056700
     27 H1          62.4570  -135.8160    41.1770 hc         1 VSZ       0.098700
     28 H2          65.0470  -135.1210    42.6550 hc         1 VSZ       0.054700
     29 H20         65.2260  -138.5340    42.4700 ho         1 VSZ       0.445000
     30 H3          65.7440  -134.0610    40.4740 hc         1 VSZ       0.033200
     31 H4          65.6120  -135.8150    40.3670 hc         1 VSZ       0.033200
     32 H5          64.3260  -134.7870    39.6900 hc         1 VSZ       0.033200
     33 H6          63.3150  -133.4450    43.1990 hc         1 VSZ       0.033200
     34 H7          64.5070  -132.7420    42.1040 hc         1 VSZ       0.033200
     35 H8          62.9260  -133.2470    41.4750 hc         1 VSZ       0.033200
     36 H18         63.0530  -136.1040    44.2150 h4         1 VSZ      -0.013800
     37 H21         62.9230  -139.1720    43.4340 hn         1 VSZ       0.324500
     38 H22         60.4670  -140.0970    41.9940 h1         1 VSZ       0.078700
     39 H9          62.5620  -141.9760    43.2080 hc         1 VSZ       0.059700
     40 H10         60.3360  -142.9250    43.6160 hc         1 VSZ       0.033867
     41 H11         59.8700  -142.6720    41.9160 hc         1 VSZ       0.033867
     42 H12         61.1290  -143.8500    42.3400 hc         1 VSZ       0.033867
     43 H23         63.3600  -141.2120    41.0050 hc         1 VSZ       0.033867
     44 H24         62.8470  -142.8980    40.8940 hc         1 VSZ       0.033867
     45 H25         61.7950  -141.6150    40.2620 hc         1 VSZ       0.033867
     46 H26         58.7940  -140.7550    43.3150 hn         1 VSZ       0.344500
     47 H13         58.9490  -140.7720    46.2300 h1         1 VSZ       0.050700
     48 H14         58.9950  -138.3750    45.7930 hc         1 VSZ       0.040700
     49 H28         57.9530  -139.2380    47.8690 hc         1 VSZ       0.019200
     50 H29         57.5040  -137.6130    47.3980 hc         1 VSZ       0.019200
     51 H15         57.1130  -137.0900    44.8600 hc         1 VSZ       0.026033
     52 H16         57.8340  -138.1680    43.6550 hc         1 VSZ       0.026033
     53 H17         56.2830  -138.5910    44.4070 hc         1 VSZ       0.026033
     54 H30         55.5470  -138.7890    48.2910 hc         1 VSZ       0.028367
     55 H31         55.2680  -138.4350    46.5810 hc         1 VSZ       0.028367
     56 H32         55.6930  -140.0820    47.0980 hc         1 VSZ       0.028367
     57 O12         61.8740  -138.5520    40.5290 o          1 VSZ      -0.586100
@<TRIPOS>BOND
     1     1     2 1   
     2     1     4 1   
     3     1     5 1   
     4     1    26 1   
     5     2     3 1   
     6     2     8 1   
     7     2    27 1   
     8     3     6 1   
     9     3     7 1   
    10     3    28 1   
    11     4    10 1   
    12     4    57 2   
    13     5    29 1   
    14     6    30 1   
    15     6    31 1   
    16     6    32 1   
    17     7    33 1   
    18     7    34 1   
    19     7    35 1   
    20     8     9 2   
    21     8    36 1   
    22    10    11 1   
    23    10    37 1   
    24    11    12 1   
    25    11    14 1   
    26    11    38 1   
    27    12    13 2   
    28    12    17 1   
    29    14    15 1   
    30    14    16 1   
    31    14    39 1   
    32    15    40 1   
    33    15    41 1   
    34    15    42 1   
    35    16    43 1   
    36    16    44 1   
    37    16    45 1   
    38    17    18 1   
    39    17    46 1   
    40    18    19 1   
    41    18    21 1   
    42    18    47 1   
    43    19    20 1   
    44    19    25 1   
    45    21    22 1   
    46    21    23 1   
    47    21    48 1   
    48    22    24 1   
    49    22    49 1   
    50    22    50 1   
    51    23    51 1   
    52    23    52 1   
    53    23    53 1   
    54    24    54 1   
    55    24    55 1   
    56    24    56 1   
@<TRIPOS>SUBSTRUCTURE
     1 VSZ         1 TEMP              0 ****  ****    0 ROOT
