@<TRIPOS>MOLECULE
VT1
   53    56     1     0     0
SMALL
No Charge or Current Charge


@<TRIPOS>ATOM
      1 FBE        -10.0520    -0.4480     1.2020 f          1 VT1      -0.106000
      2 CBD         -9.7730    -0.2580    -0.1090 c3         1 VT1       0.310000
      3 FBF         -9.8530    -1.4560    -0.7330 f          1 VT1      -0.106000
      4 FBG        -10.7340     0.5430    -0.6240 f          1 VT1      -0.106000
      5 CBC         -8.3770     0.3790    -0.2960 c3         1 VT1       0.087600
      6 OBB         -7.3730    -0.4960     0.2630 os         1 VT1      -0.326100
      7 CBA         -6.0290    -0.1870     0.2390 ca         1 VT1       0.149100
      8 CBH         -5.1340    -1.1040     0.8080 ca         1 VT1      -0.163500
      9 CBI         -3.7530    -0.8440     0.8140 ca         1 VT1      -0.056000
     10 CAZ         -5.5310     1.0040    -0.3300 ca         1 VT1      -0.163500
     11 CAY         -4.1490     1.2630    -0.3240 ca         1 VT1      -0.056000
     12 CAX         -3.2310     0.3460     0.2470 cp         1 VT1      -0.077000
     13 CAW         -1.7580     0.6250     0.2530 cp         1 VT1      -0.049000
     14 CBJ         -0.9190     0.1790     1.3090 ca         1 VT1       0.345900
     15 NBK          0.4160     0.4030     1.3650 nb         1 VT1      -0.652000
     16 CAV         -1.1330     1.3450    -0.7920 ca         1 VT1      -0.073000
     17 CAU          0.2510     1.5800    -0.7390 ca         1 VT1      -0.109000
     18 CAT          1.0020     1.0950     0.3530 ca         1 VT1       0.268300
     19 CAQ          2.5280     1.3330     0.4450 c3         1 VT1       0.116700
     20 FAR          2.8590     2.5120    -0.1410 f          1 VT1      -0.099500
     21 FAS          2.9050     1.4720     1.7400 f          1 VT1      -0.099500
     22 CAB          3.3680     0.1830    -0.2410 c3         1 VT1       0.204300
     23 CAC          3.0060    -1.2240     0.3490 c3         1 VT1       0.099600
     24 NAD          3.8160    -2.3520    -0.1660 na         1 VT1      -0.082700
     25 NAH          3.4360    -3.0610    -1.2590 nc         1 VT1      -0.187800
     26 NAG          4.3600    -3.9730    -1.4010 nd         1 VT1      -0.052000
     27 NAF          5.3190    -3.8850    -0.4210 nd         1 VT1      -0.385000
     28 CAE          4.9730    -2.8740     0.3510 cc         1 VT1       0.379400
     29 OAA          2.9680     0.1370    -1.6240 oh         1 VT1      -0.629000
     30 CAI          4.9010     0.4810    -0.1640 ca         1 VT1      -0.189300
     31 CAO          5.6430     0.3200     1.0410 ca         1 VT1       0.220000
     32 FAP          5.0580    -0.1200     2.1760 f          1 VT1      -0.173000
     33 CAN          7.0150     0.5960     1.0970 ca         1 VT1      -0.199000
     34 CAL          7.6860     1.0470    -0.0400 ca         1 VT1       0.221000
     35 FAM          9.0090     1.3130     0.0170 f          1 VT1      -0.163000
     36 CAK          6.9900     1.2220    -1.2390 ca         1 VT1      -0.167000
     37 CAJ          5.6140     0.9460    -1.3040 ca         1 VT1      -0.032000
     38 HBC1        -8.2010     0.5370    -1.3680 h1         1 VT1       0.071700
     39 HBC2        -8.3620     1.3560     0.2040 h1         1 VT1       0.071700
     40 HBH         -5.5140    -2.0240     1.2450 ha         1 VT1       0.129500
     41 HAZ         -6.1960     1.7380    -0.7760 ha         1 VT1       0.129500
     42 HBI         -3.0840    -1.5810     1.2520 ha         1 VT1       0.119500
     43 HAY         -3.7910     2.1950    -0.7560 ha         1 VT1       0.119500
     44 HBJ         -1.3380    -0.3700     2.1510 h4         1 VT1       0.030100
     45 HAV         -1.7080     1.7050    -1.6420 ha         1 VT1       0.128000
     46 HAU          0.7340     2.1280    -1.5430 ha         1 VT1       0.137000
     47 HAC1         3.0730    -1.2100     1.4420 h1         1 VT1       0.099700
     48 HAC2         1.9570    -1.4430     0.1130 h1         1 VT1       0.099700
     49 HAA          3.1090     1.0320    -1.9960 ho         1 VT1       0.460000
     50 HAE          5.4750    -2.5070     1.2370 h5         1 VT1       0.078100
     51 HAJ          5.1230     1.1000    -2.2620 ha         1 VT1       0.126000
     52 HAN          7.5590     0.4610     2.0270 ha         1 VT1       0.156000
     53 HAK          7.5180     1.5740    -2.1210 ha         1 VT1       0.144000
@<TRIPOS>BOND
     1     1     2 1   
     2     2     3 1   
     3     2     4 1   
     4     2     5 1   
     5     5     6 1   
     6     5    38 1   
     7     5    39 1   
     8     6     7 1   
     9     7     8 ar  
    10     7    10 ar  
    11     8     9 ar  
    12     8    40 1   
    13     9    12 ar  
    14     9    42 1   
    15    10    11 ar  
    16    10    41 1   
    17    11    12 ar  
    18    11    43 1   
    19    12    13 1   
    20    13    14 ar  
    21    13    16 ar  
    22    14    15 ar  
    23    14    44 1   
    24    15    18 ar  
    25    16    17 ar  
    26    16    45 1   
    27    17    18 ar  
    28    17    46 1   
    29    18    19 1   
    30    19    20 1   
    31    19    21 1   
    32    19    22 1   
    33    22    23 1   
    34    22    29 1   
    35    22    30 1   
    36    23    24 1   
    37    23    47 1   
    38    23    48 1   
    39    24    25 1   
    40    24    28 1   
    41    25    26 2   
    42    26    27 1   
    43    27    28 2   
    44    28    50 1   
    45    29    49 1   
    46    30    31 ar  
    47    30    37 ar  
    48    31    32 1   
    49    31    33 ar  
    50    33    34 ar  
    51    33    52 1   
    52    34    35 1   
    53    34    36 ar  
    54    36    37 ar  
    55    36    53 1   
    56    37    51 1   
@<TRIPOS>SUBSTRUCTURE
     1 VT1         1 TEMP              0 ****  ****    0 ROOT
