@<TRIPOS>MOLECULE
VT1
   53    56     1     0     0
SMALL
abcg2


@<TRIPOS>ATOM
      1 FBE         -9.8000    -0.5390     1.3060 f          1 VT1      -0.106000
      2 CBD         -9.5480    -0.2200     0.0330 c3         1 VT1       0.310000
      3 FBF         -9.6610    -1.3430    -0.6820 f          1 VT1      -0.106000
      4 FBG        -10.5100     0.6160    -0.3720 f          1 VT1      -0.106000
      5 CBC         -8.1950     0.4300    -0.1340 c3         1 VT1       0.087600
      6 OBB         -7.2460    -0.5060     0.3040 os         1 VT1      -0.326100
      7 CBA         -5.9390    -0.1730     0.2370 ca         1 VT1       0.149100
      8 CBH         -5.0360    -1.1420     0.6730 ca         1 VT1      -0.163500
      9 CBI         -3.6790    -0.8890     0.6400 ca         1 VT1      -0.056000
     10 CAZ         -5.4650     1.0480    -0.2300 ca         1 VT1      -0.163500
     11 CAY         -4.0980     1.2850    -0.2590 ca         1 VT1      -0.056000
     12 CAX         -3.1820     0.3310     0.1720 cp         1 VT1      -0.077000
     13 CAW         -1.7370     0.6030     0.1390 cp         1 VT1      -0.049000
     14 CBJ         -0.8870     0.1260     1.1390 ca         1 VT1       0.345900
     15 NBK          0.4160     0.3490     1.1650 nb         1 VT1      -0.652000
     16 CAV         -1.1470     1.3520    -0.8760 ca         1 VT1      -0.073000
     17 CAU          0.2160     1.5910    -0.8570 ca         1 VT1      -0.109000
     18 CAT          0.9560     1.0690     0.1920 ca         1 VT1       0.268300
     19 CAQ          2.4480     1.2710     0.2950 c3         1 VT1       0.116700
     20 FAR          2.7920     2.4130    -0.3660 f          1 VT1      -0.099500
     21 FAS          2.7880     1.4660     1.5870 f          1 VT1      -0.099500
     22 CAB          3.2980     0.1270    -0.3310 c3         1 VT1       0.204300
     23 CAC          2.9030    -1.2340     0.2720 c3         1 VT1       0.099600
     24 NAD          3.8280    -2.2750    -0.1190 na         1 VT1      -0.082700
     25 NAH          3.8590    -2.7690    -1.3490 nc         1 VT1      -0.187800
     26 NAG          4.7840    -3.6430    -1.3730 nd         1 VT1      -0.052000
     27 NAF          5.3770    -3.7500    -0.1810 nd         1 VT1      -0.385000
     28 CAE          4.7730    -2.8900     0.5950 cc         1 VT1       0.379400
     29 OAA          2.9310     0.0360    -1.6760 oh         1 VT1      -0.629000
     30 CAI          4.7870     0.4380    -0.1650 ca         1 VT1      -0.189300
     31 CAO          5.4740     0.3390     1.0410 ca         1 VT1       0.220000
     32 FAP          4.8490    -0.1110     2.1390 f          1 VT1      -0.173000
     33 CAN          6.8130     0.6440     1.1850 ca         1 VT1      -0.199000
     34 CAL          7.4990     1.0700     0.0670 ca         1 VT1       0.221000
     35 FAM          8.7940     1.3740     0.1860 f          1 VT1      -0.163000
     36 CAK          6.8860     1.1760    -1.1640 ca         1 VT1      -0.167000
     37 CAJ          5.5420     0.8550    -1.2610 ca         1 VT1      -0.032000
     38 HBC1        -8.0580     0.6950    -1.1880 h1         1 VT1       0.071700
     39 HBC2        -8.1700     1.3510     0.4590 h1         1 VT1       0.071700
     40 HBH         -5.4040    -2.0950     1.0300 ha         1 VT1       0.129500
     41 HAZ         -6.1320     1.8290    -0.5690 ha         1 VT1       0.129500
     42 HBI         -2.9990    -1.6650     0.9650 ha         1 VT1       0.119500
     43 HAY         -3.7530     2.2500    -0.6090 ha         1 VT1       0.119500
     44 HBJ         -1.2880    -0.4480     1.9680 h4         1 VT1       0.030100
     45 HAV         -1.7420     1.7360    -1.6950 ha         1 VT1       0.128000
     46 HAU          0.6730     2.1690    -1.6470 ha         1 VT1       0.137000
     47 HAC1         2.8630    -1.2200     1.3560 h1         1 VT1       0.099700
     48 HAC2         1.9150    -1.5140    -0.0860 h1         1 VT1       0.099700
     49 HAA          3.0830     0.8710    -2.1340 ho         1 VT1       0.460000
     50 HAE          4.9710    -2.7110     1.6380 h5         1 VT1       0.078100
     51 HAJ          5.0950     0.9220    -2.2420 ha         1 VT1       0.126000
     52 HAN          7.2990     0.5440     2.1460 ha         1 VT1       0.156000
     53 HAK          7.4390     1.4950    -2.0360 ha         1 VT1       0.144000
@<TRIPOS>BOND
     1     1     2 1   
     2     2     3 1   
     3     2     4 1   
     4     2     5 1   
     5     5     6 1   
     6     5    38 1   
     7     5    39 1   
     8     6     7 1   
     9     7     8 ar  
    10     7    10 ar  
    11     8     9 ar  
    12     8    40 1   
    13     9    12 ar  
    14     9    42 1   
    15    10    11 ar  
    16    10    41 1   
    17    11    12 ar  
    18    11    43 1   
    19    12    13 1   
    20    13    14 ar  
    21    13    16 ar  
    22    14    15 ar  
    23    14    44 1   
    24    15    18 ar  
    25    16    17 ar  
    26    16    45 1   
    27    17    18 ar  
    28    17    46 1   
    29    18    19 1   
    30    19    20 1   
    31    19    21 1   
    32    19    22 1   
    33    22    23 1   
    34    22    29 1   
    35    22    30 1   
    36    23    24 1   
    37    23    47 1   
    38    23    48 1   
    39    24    25 1   
    40    24    28 1   
    41    25    26 2   
    42    26    27 1   
    43    27    28 2   
    44    28    50 1   
    45    29    49 1   
    46    30    31 ar  
    47    30    37 ar  
    48    31    32 1   
    49    31    33 ar  
    50    33    34 ar  
    51    33    52 1   
    52    34    35 1   
    53    34    36 ar  
    54    36    37 ar  
    55    36    53 1   
    56    37    51 1   
@<TRIPOS>SUBSTRUCTURE
     1 VT1         1 TEMP              0 ****  ****    0 ROOT
