@<TRIPOS>MOLECULE
VT2
   65    69     1     0     0
SMALL
abcg2


@<TRIPOS>ATOM
      1 NAA          9.4360     4.9040     2.5070 n1         1 VT2      -0.445000
      2 OAB         -2.0560     0.9000    -0.1860 oh         1 VT2      -0.630000
      3 FAC         -7.2580     4.3400    -1.0310 f          1 VT2      -0.163000
      4 FAD         -6.2050    -0.1150    -0.2460 f          1 VT2      -0.173000
      5 FAE         -2.9000     0.3290    -2.6880 f          1 VT2      -0.099500
      6 FAF         -4.4330    -1.0430    -1.9960 f          1 VT2      -0.099500
      7 CAH          1.6800    -4.9950    -0.9920 ce         1 VT2      -0.117200
      8 CAJ         -4.9950     3.7320    -0.9200 ca         1 VT2      -0.167000
      9 CAK          8.9360     1.5220     1.8150 ca         1 VT2      -0.074000
     10 CAL          7.0990     2.8360     0.9450 ca         1 VT2      -0.074000
     11 CAM          2.1830    -2.8760     0.2670 ca         1 VT2      -0.057500
     12 CAN          3.9040    -3.9170    -1.0200 ca         1 VT2      -0.057500
     13 CAO         -0.0390    -2.5460    -1.9880 ca         1 VT2      -0.065000
     14 CAP          8.3290     0.3750     1.3320 ca         1 VT2      -0.093000
     15 CAQ          6.5090     1.6820     0.4640 ca         1 VT2      -0.093000
     16 CAR          3.0590    -1.8780     0.6390 ca         1 VT2      -0.174000
     17 CAS          4.7970    -2.9160    -0.6630 ca         1 VT2      -0.174000
     18 CAT         -0.9120    -1.4780    -2.0940 ca         1 VT2      -0.112000
     19 CAU         -4.0540     2.7300    -0.7500 ca         1 VT2      -0.032000
     20 CAV         -1.7960    -3.7820    -0.9750 ca         1 VT2       0.341900
     21 CAW         -5.0010     0.4010     2.6630 cc         1 VT2       0.379400
     22 CAX         -6.7420     2.0940    -0.6540 ca         1 VT2      -0.200000
     23 CAY          6.4890    -0.8020     0.1020 c3         1 VT2       0.206900
     24 CAZ         -3.5390    -0.5590     0.8510 c3         1 VT2       0.099600
     25 NBA         -4.8010     1.2180     3.6610 nd         1 VT2      -0.385000
     26 NBB         -2.6370    -2.7660    -1.0720 nb         1 VT2      -0.655000
     27 NBC         -3.5060     1.5400     3.6140 nd         1 VT2      -0.053000
     28 NBD         -2.9230     0.9580     2.6430 nc         1 VT2      -0.187800
     29 OBE          5.1590    -0.8680     0.5820 os         1 VT2      -0.338100
     30 CBF         -6.3310     3.3920    -0.8730 ca         1 VT2       0.220000
     31 CBG          8.3180     2.7550     1.6210 ca         1 VT2      -0.008000
     32 CBH          2.5810    -3.9090    -0.5890 ca         1 VT2      -0.111800
     33 CBI         -0.4670    -3.7350    -1.4020 ca         1 VT2      -0.074800
     34 CBJ         -5.7680     1.1290    -0.4960 ca         1 VT2       0.220000
     35 CBK          7.1180     0.4430     0.6530 ca         1 VT2      -0.072300
     36 CBL          4.3750    -1.8830     0.1680 ca         1 VT2       0.150100
     37 CBM         -2.2050    -1.6390    -1.6190 ca         1 VT2       0.266300
     38 CBN         -4.4030     1.3970    -0.5440 ca         1 VT2      -0.188300
     39 NBO         -3.8420     0.2310     2.0230 na         1 VT2      -0.081700
     40 CBP         -3.2250    -0.5290    -1.6790 c3         1 VT2       0.117700
     41 CBQ         -3.3160     0.3320    -0.3850 c3         1 VT2       0.204300
     42 HOAB        -1.7890     1.4300    -0.9460 ho         1 VT2       0.461000
     43 HAH          2.1370    -5.9780    -1.0470 ha         1 VT2       0.179000
     44 HAI         -0.1330    -5.8690    -1.4790 ha         1 VT2       0.183000
     45 HAJ         -4.6890     4.7570    -1.0800 ha         1 VT2       0.144000
     46 HAK          9.8790     1.4610     2.3410 ha         1 VT2       0.129000
     47 HAL          6.6240     3.7960     0.7940 ha         1 VT2       0.129000
     48 HAM          1.1760    -2.8580     0.6640 ha         1 VT2       0.117500
     49 HAN          4.2530    -4.7190    -1.6600 ha         1 VT2       0.117500
     50 HAO          0.9670    -2.4540    -2.3740 ha         1 VT2       0.135000
     51 HAP          8.8070    -0.5840     1.4890 ha         1 VT2       0.124500
     52 HAQ          5.5690     1.7530    -0.0680 ha         1 VT2       0.124500
     53 HAR          2.7360    -1.0890     1.3080 ha         1 VT2       0.127500
     54 HAS          5.8120    -2.9680    -1.0350 ha         1 VT2       0.127500
     55 HAT         -0.5830    -0.5560    -2.5510 ha         1 VT2       0.136000
     56 HAU         -3.0160     3.0290    -0.7670 ha         1 VT2       0.126000
     57 HAV         -2.1880    -4.6910    -0.5310 h4         1 VT2       0.028100
     58 HAW         -5.9270    -0.0810     2.3980 h5         1 VT2       0.078100
     59 HAX         -7.7910     1.8320    -0.6000 ha         1 VT2       0.156000
     60 HAY          7.0620    -1.6840     0.4080 h1         1 VT2       0.045700
     61 HAYA         6.5000    -0.7650    -0.9940 h1         1 VT2       0.045700
     62 HAZ         -2.6320    -1.1240     1.0570 h1         1 VT2       0.099700
     63 HAZA        -4.3420    -1.2760     0.7150 h1         1 VT2       0.099700
     64 CAI          0.3750    -4.9300    -1.2860 cf         1 VT2      -0.178200
     65 CAG          8.9350     3.9430     2.1140 cg         1 VT2       0.320000
@<TRIPOS>BOND
     1     1    65 3   
     2     2    41 1   
     3     2    42 1   
     4     3    30 1   
     5     4    34 1   
     6     5    40 1   
     7     6    40 1   
     8     7    32 1   
     9     7    43 1   
    10     7    64 2   
    11     8    19 ar  
    12     8    30 ar  
    13     8    45 1   
    14     9    14 ar  
    15     9    31 ar  
    16     9    46 1   
    17    10    15 ar  
    18    10    31 ar  
    19    10    47 1   
    20    11    16 ar  
    21    11    32 ar  
    22    11    48 1   
    23    12    17 ar  
    24    12    32 ar  
    25    12    49 1   
    26    13    18 ar  
    27    13    33 ar  
    28    13    50 1   
    29    14    35 ar  
    30    14    51 1   
    31    15    35 ar  
    32    15    52 1   
    33    16    36 ar  
    34    16    53 1   
    35    17    36 ar  
    36    17    54 1   
    37    18    37 ar  
    38    18    55 1   
    39    19    38 ar  
    40    19    56 1   
    41    20    26 ar  
    42    20    33 ar  
    43    20    57 1   
    44    21    25 2   
    45    21    39 1   
    46    21    58 1   
    47    22    30 ar  
    48    22    34 ar  
    49    22    59 1   
    50    23    29 1   
    51    23    35 1   
    52    23    60 1   
    53    23    61 1   
    54    24    39 1   
    55    24    41 1   
    56    24    62 1   
    57    24    63 1   
    58    25    27 1   
    59    26    37 ar  
    60    27    28 2   
    61    28    39 1   
    62    29    36 1   
    63    31    65 1   
    64    33    64 1   
    65    34    38 ar  
    66    37    40 1   
    67    38    41 1   
    68    40    41 1   
    69    44    64 1   
@<TRIPOS>SUBSTRUCTURE
     1 VT2         1 TEMP              0 ****  ****    0 ROOT
