@<TRIPOS>MOLECULE
VT2
   65    69     1     0     0
SMALL
No Charge or Current Charge


@<TRIPOS>ATOM
      1 NAA          9.6710     4.9500     2.6260 n1         1 VT2      -0.445000
      2 OAB         -2.2170     0.8300    -0.0740 oh         1 VT2      -0.630000
      3 FAC         -7.2900     4.5640    -1.0140 f          1 VT2      -0.163000
      4 FAD         -6.4580    -0.0470    -0.4070 f          1 VT2      -0.173000
      5 FAE         -3.0200     0.2880    -2.7000 f          1 VT2      -0.099500
      6 FAF         -4.5690    -1.0630    -2.0700 f          1 VT2      -0.099500
      7 CAH          1.7440    -5.0070    -0.9300 ce         1 VT2      -0.117200
      8 CAJ         -5.0350     3.8220    -0.8530 ca         1 VT2      -0.167000
      9 CAK          8.6670     1.5840     2.2670 ca         1 VT2      -0.074000
     10 CAL          7.8320     2.9120     0.4060 ca         1 VT2      -0.074000
     11 CAM          2.3230    -2.8980     0.3180 ca         1 VT2      -0.057500
     12 CAN          3.9840    -3.9050    -1.1420 ca         1 VT2      -0.057500
     13 CAO         -0.0420    -2.5390    -1.7650 ca         1 VT2      -0.065000
     14 CAP          8.0670     0.4370     1.7170 ca         1 VT2      -0.093000
     15 CAQ          7.2330     1.7640    -0.1430 ca         1 VT2      -0.093000
     16 CAR          3.2310    -1.8760     0.6430 ca         1 VT2      -0.174000
     17 CAS          4.8940    -2.8830    -0.8170 ca         1 VT2      -0.174000
     18 CAT         -0.9620    -1.4850    -1.8880 ca         1 VT2      -0.112000
     19 CAU         -4.1110     2.7750    -0.6930 ca         1 VT2      -0.032000
     20 CAV         -1.8810    -3.9350    -1.0650 ca         1 VT2       0.341900
     21 CAW         -5.2910     0.4930     2.6400 cc         1 VT2       0.379400
     22 CAX         -6.8630     2.2440    -0.7120 ca         1 VT2      -0.200000
     23 CAY          6.6980    -0.7220    -0.0860 c3         1 VT2       0.206900
     24 CAZ         -3.8490    -0.6580     0.8550 c3         1 VT2       0.099600
     25 NBA         -5.0320     1.0310     3.8160 nd         1 VT2      -0.385000
     26 NBB         -2.7720    -2.9220    -1.1800 nb         1 VT2      -0.655000
     27 NBC         -3.6790     0.9000     4.0160 nd         1 VT2      -0.053000
     28 NBD         -3.0970     0.2980     3.0140 nc         1 VT2      -0.187800
     29 OBE          5.3620    -0.8300     0.4360 os         1 VT2      -0.338100
     30 CBF         -6.4060     3.5540    -0.8610 ca         1 VT2       0.220000
     31 CBG          8.5520     2.8260     1.6130 ca         1 VT2      -0.008000
     32 CBH          2.6910    -3.9110    -0.5880 ca         1 VT2      -0.111800
     33 CBI         -0.5020    -3.7950    -1.3280 ca         1 VT2      -0.074800
     34 CBJ         -5.9480     1.1940    -0.5540 ca         1 VT2       0.220000
     35 CBK          7.3480     0.5200     0.5090 ca         1 VT2      -0.072300
     36 CBL          4.5160    -1.8590     0.0790 ca         1 VT2       0.150100
     37 CBM         -2.3230    -1.7030    -1.5820 ca         1 VT2       0.266300
     38 CBN         -4.5440     1.4290    -0.5340 ca         1 VT2      -0.188300
     39 NBO         -4.0980     0.0470     2.1320 na         1 VT2      -0.081700
     40 CBP         -3.3630    -0.5650    -1.7010 c3         1 VT2       0.117700
     41 CBQ         -3.5100     0.2670    -0.3640 c3         1 VT2       0.204300
     42 HOAB        -1.9410     1.3450    -0.8610 ho         1 VT2       0.461000
     43 HAH          2.2120    -5.9930    -0.9400 ha         1 VT2       0.179000
     44 HAI         -0.0900    -5.9140    -1.3570 ha         1 VT2       0.183000
     45 HAJ         -4.6850     4.8440    -0.9700 ha         1 VT2       0.144000
     46 HAK          9.2200     1.5050     3.2020 ha         1 VT2       0.129000
     47 HAL          7.7350     3.8660    -0.1080 ha         1 VT2       0.129000
     48 HAM          1.3340    -2.9040     0.7720 ha         1 VT2       0.117500
     49 HAN          4.2830    -4.6910    -1.8330 ha         1 VT2       0.117500
     50 HAO          1.0020    -2.3800    -2.0230 ha         1 VT2       0.135000
     51 HAP          8.1600    -0.5160     2.2330 ha         1 VT2       0.124500
     52 HAQ          6.6770     1.8420    -1.0740 ha         1 VT2       0.124500
     53 HAR          2.9390    -1.0930     1.3390 ha         1 VT2       0.127500
     54 HAS          5.8820    -2.9040    -1.2680 ha         1 VT2       0.127500
     55 HAT         -0.6190    -0.5090    -2.2210 ha         1 VT2       0.136000
     56 HAU         -3.0570     3.0410    -0.6940 ha         1 VT2       0.126000
     57 HAV         -2.2870    -4.8920    -0.7400 h4         1 VT2       0.028100
     58 HAW         -6.2490     0.3940     2.1470 h5         1 VT2       0.078100
     59 HAX         -7.9290     2.0390    -0.7190 ha         1 VT2       0.156000
     60 HAY          7.2900    -1.6070     0.1800 h1         1 VT2       0.045700
     61 HAYA         6.6810    -0.6370    -1.1800 h1         1 VT2       0.045700
     62 HAZ         -3.0080    -1.3420     1.0190 h1         1 VT2       0.099700
     63 HAZA        -4.7130    -1.2910     0.6260 h1         1 VT2       0.099700
     64 CAI          0.4040    -4.9540    -1.1860 cf         1 VT2      -0.178200
     65 CAG          9.1650     3.9990     2.1750 cg         1 VT2       0.320000
@<TRIPOS>BOND
     1     1    65 3   
     2     2    41 1   
     3     2    42 1   
     4     3    30 1   
     5     4    34 1   
     6     5    40 1   
     7     6    40 1   
     8     7    32 1   
     9     7    43 1   
    10     7    64 2   
    11     8    19 ar  
    12     8    30 ar  
    13     8    45 1   
    14     9    14 ar  
    15     9    31 ar  
    16     9    46 1   
    17    10    15 ar  
    18    10    31 ar  
    19    10    47 1   
    20    11    16 ar  
    21    11    32 ar  
    22    11    48 1   
    23    12    17 ar  
    24    12    32 ar  
    25    12    49 1   
    26    13    18 ar  
    27    13    33 ar  
    28    13    50 1   
    29    14    35 ar  
    30    14    51 1   
    31    15    35 ar  
    32    15    52 1   
    33    16    36 ar  
    34    16    53 1   
    35    17    36 ar  
    36    17    54 1   
    37    18    37 ar  
    38    18    55 1   
    39    19    38 ar  
    40    19    56 1   
    41    20    26 ar  
    42    20    33 ar  
    43    20    57 1   
    44    21    25 2   
    45    21    39 1   
    46    21    58 1   
    47    22    30 ar  
    48    22    34 ar  
    49    22    59 1   
    50    23    29 1   
    51    23    35 1   
    52    23    60 1   
    53    23    61 1   
    54    24    39 1   
    55    24    41 1   
    56    24    62 1   
    57    24    63 1   
    58    25    27 1   
    59    26    37 ar  
    60    27    28 2   
    61    28    39 1   
    62    29    36 1   
    63    31    65 1   
    64    33    64 1   
    65    34    38 ar  
    66    37    40 1   
    67    38    41 1   
    68    40    41 1   
    69    44    64 1   
@<TRIPOS>SUBSTRUCTURE
     1 VT2         1 TEMP              0 ****  ****    0 ROOT
