@<TRIPOS>MOLECULE
VT3
   31    33     1     0     0
SMALL
No Charge or Current Charge


@<TRIPOS>ATOM
      1 CAD         -2.4030    -1.1530    -0.4160 ca         1 VT3      -0.069500
      2 CAC         -3.7990    -1.3130    -0.3730 ca         1 VT3      -0.119500
      3 CAB         -4.6260    -0.2510     0.0310 ca         1 VT3      -0.051300
      4 CAA         -6.1360    -0.4250     0.0760 c3         1 VT3      -0.051800
      5 CAG         -4.0400     0.9730     0.3970 ca         1 VT3      -0.119500
      6 CAF         -2.6440     1.1380     0.3550 ca         1 VT3      -0.069500
      7 CAE         -1.8040     0.0820    -0.0740 ca         1 VT3      -0.155900
      8 CAH         -0.3370     0.2270    -0.0870 cc         1 VT3       0.550500
      9 NAI          0.4450    -0.8410     0.0810 nd         1 VT3      -0.601100
     10 CAJ          1.8380    -0.5890     0.0410 ca         1 VT3       0.158400
     11 CAO          2.7440    -1.6750     0.2240 ca         1 VT3       0.150100
     12 OAP          2.2860    -2.9510     0.4350 oh         1 VT3      -0.500100
     13 CAN          4.1330    -1.4620     0.1930 ca         1 VT3      -0.187000
     14 CAM          4.6470    -0.1740    -0.0190 ca         1 VT3      -0.089000
     15 CAL          3.7710     0.9040    -0.2020 ca         1 VT3      -0.080000
     16 CAK          2.3740     0.7010    -0.1730 ca         1 VT3      -0.168600
     17 CAQ          1.4390     1.8350    -0.3720 c          1 VT3       0.575600
     18 OAR          1.7910     2.9870    -0.5780 o          1 VT3      -0.539000
     19 NAS          0.1360     1.4920    -0.3150 ns         1 VT3      -0.426400
     20 HAD         -1.7890    -1.9950    -0.7300 ha         1 VT3       0.126500
     21 HAC         -4.2370    -2.2680    -0.6530 ha         1 VT3       0.117000
     22 HAA1        -6.4130    -1.4650     0.2870 hc         1 VT3       0.046367
     23 HAA2        -6.5880     0.1990     0.8560 hc         1 VT3       0.046367
     24 HAA3        -6.5890    -0.1450    -0.8820 hc         1 VT3       0.046367
     25 HAG         -4.6670     1.8000     0.7240 ha         1 VT3       0.117000
     26 HAF         -2.2280     2.0920     0.6730 ha         1 VT3       0.126500
     27 HAS         -0.5240     2.2360    -0.4740 hn         1 VT3       0.331500
     28 HAP          3.0590    -3.5440     0.5370 ho         1 VT3       0.460000
     29 HAN          4.8220    -2.2920     0.3340 ha         1 VT3       0.116000
     30 HAM          5.7230    -0.0120    -0.0430 ha         1 VT3       0.119000
     31 HAL          4.1790     1.9000    -0.3690 ha         1 VT3       0.139000
@<TRIPOS>BOND
     1     1     2 ar  
     2     1     7 ar  
     3     1    20 1   
     4     2     3 ar  
     5     2    21 1   
     6     3     4 1   
     7     3     5 ar  
     8     4    22 1   
     9     4    23 1   
    10     4    24 1   
    11     5     6 ar  
    12     5    25 1   
    13     6     7 ar  
    14     6    26 1   
    15     7     8 1   
    16     8     9 2   
    17     8    19 1   
    18     9    10 1   
    19    10    11 ar  
    20    10    16 ar  
    21    11    12 1   
    22    11    13 ar  
    23    12    28 1   
    24    13    14 ar  
    25    13    29 1   
    26    14    15 ar  
    27    14    30 1   
    28    15    16 ar  
    29    15    31 1   
    30    16    17 1   
    31    17    18 2   
    32    17    19 1   
    33    19    27 1   
@<TRIPOS>SUBSTRUCTURE
     1 VT3         1 TEMP              0 ****  ****    0 ROOT
