@<TRIPOS>MOLECULE
VT3
   31    33     1     0     0
SMALL
bcc


@<TRIPOS>ATOM
      1 CAD         -2.3320    -1.1340    -0.3440 ca         1 VT3      -0.087500
      2 CAC         -3.7010    -1.3250    -0.3120 ca         1 VT3      -0.137500
      3 CAB         -4.5670    -0.2920     0.0490 ca         1 VT3      -0.051300
      4 CAA         -6.0520    -0.4960     0.0530 c3         1 VT3      -0.051800
      5 CAG         -4.0110     0.9400     0.3830 ca         1 VT3      -0.137500
      6 CAF         -2.6410     1.1430     0.3450 ca         1 VT3      -0.087500
      7 CAE         -1.7830     0.1080    -0.0240 ca         1 VT3      -0.155900
      8 CAH         -0.3220     0.2800    -0.0700 cc         1 VT3       0.550500
      9 NAI          0.4490    -0.7360     0.0900 nd         1 VT3      -0.601100
     10 CAJ          1.8020    -0.5350     0.0360 ca         1 VT3       0.158400
     11 CAO          2.6540    -1.6520     0.1990 ca         1 VT3       0.150100
     12 OAP          2.0680    -2.8430     0.3890 oh         1 VT3      -0.461100
     13 CAN          4.0240    -1.4750     0.1570 ca         1 VT3      -0.205000
     14 CAM          4.5780    -0.2080    -0.0440 ca         1 VT3      -0.107000
     15 CAL          3.7680     0.8930    -0.2050 ca         1 VT3      -0.098000
     16 CAK          2.3820     0.7260    -0.1640 ca         1 VT3      -0.168600
     17 CAQ          1.4940     1.8690    -0.3470 c          1 VT3       0.718100
     18 OAR          1.8530     3.0160    -0.5440 o          1 VT3      -0.614500
     19 NAS          0.1590     1.5400    -0.2930 ns         1 VT3      -0.493400
     20 HAD         -1.6790    -1.9490    -0.6260 ha         1 VT3       0.144500
     21 HAC         -4.1060    -2.2950    -0.5760 ha         1 VT3       0.135000
     22 HAA1        -6.3140    -1.5260     0.2910 hc         1 VT3       0.046367
     23 HAA2        -6.5430     0.1560     0.7740 hc         1 VT3       0.046367
     24 HAA3        -6.4750    -0.2720    -0.9290 hc         1 VT3       0.046367
     25 HAG         -4.6550     1.7560     0.6860 ha         1 VT3       0.135000
     26 HAF         -2.2570     2.1120     0.6390 ha         1 VT3       0.144500
     27 HAS         -0.4930     2.2950    -0.4680 hn         1 VT3       0.331500
     28 HAP          2.7380    -3.5290     0.4940 ho         1 VT3       0.421000
     29 HAN          4.6800    -2.3300     0.2820 ha         1 VT3       0.134000
     30 HAM          5.6540    -0.1020    -0.0710 ha         1 VT3       0.137000
     31 HAL          4.1910     1.8750    -0.3640 ha         1 VT3       0.157000
@<TRIPOS>BOND
     1     1     2 ar  
     2     1     7 ar  
     3     1    20 1   
     4     2     3 ar  
     5     2    21 1   
     6     3     4 1   
     7     3     5 ar  
     8     4    22 1   
     9     4    23 1   
    10     4    24 1   
    11     5     6 ar  
    12     5    25 1   
    13     6     7 ar  
    14     6    26 1   
    15     7     8 1   
    16     8     9 2   
    17     8    19 1   
    18     9    10 1   
    19    10    11 ar  
    20    10    16 ar  
    21    11    12 1   
    22    11    13 ar  
    23    12    28 1   
    24    13    14 ar  
    25    13    29 1   
    26    14    15 ar  
    27    14    30 1   
    28    15    16 ar  
    29    15    31 1   
    30    16    17 1   
    31    17    18 2   
    32    17    19 1   
    33    19    27 1   
@<TRIPOS>SUBSTRUCTURE
     1 VT3         1 TEMP              0 ****  ****    0 ROOT
