@<TRIPOS>MOLECULE
VT4
   47    48     1     0     0
SMALL
No Charge or Current Charge


@<TRIPOS>ATOM
      1 C1          -0.3600    -0.6640    -1.1970 cc         1 VT4      -0.363200
      2 C2          -1.2230    -1.1950    -0.2710 cd         1 VT4       0.138800
      3 C4           0.7370    -1.5070     1.2750 cc         1 VT4       0.010000
      4 C5           1.5490    -0.9710     0.3010 cd         1 VT4      -0.078100
      5 C6           1.0610    -0.5080    -1.0080 c          1 VT4       0.565500
      6 C8           3.5750     0.3420     0.4760 ca         1 VT4       0.141100
      7 C9           4.9350     0.2910     0.0990 ca         1 VT4      -0.090300
      8 C10          5.6540     1.4940    -0.0570 ca         1 VT4      -0.086000
      9 C11          5.0260     2.7310     0.1690 ca         1 VT4      -0.137000
     10 C12          3.6770     2.7780     0.5560 ca         1 VT4      -0.084000
     11 C13          2.9530     1.5850     0.7140 ca         1 VT4      -0.167000
     12 C14         -2.7090    -1.3180    -0.5530 c3         1 VT4      -0.050200
     13 C15         -3.5050    -0.0720    -0.1040 c3         1 VT4      -0.075400
     14 C16         -5.0200    -0.1890    -0.3780 c3         1 VT4      -0.076400
     15 C17         -5.8130     1.0590     0.0690 c3         1 VT4      -0.075400
     16 C18         -7.3280     0.9420    -0.2040 c3         1 VT4      -0.074400
     17 C19         -8.1190     2.1870     0.2420 c3         1 VT4      -0.089100
     18 O17          1.7750    -0.0400    -1.8870 o          1 VT4      -0.558100
     19 C80          5.6220    -1.0470    -0.1470 c3         1 VT4      -0.034800
     20 O7           2.8720    -0.8330     0.6500 os         1 VT4      -0.231200
     21 N           -0.6400    -1.6160     0.9570 na         1 VT4      -0.486200
     22 H1          -0.7220    -0.3210    -2.1580 ha         1 VT4       0.207000
     23 H141        -2.8600    -1.4550    -1.6310 hc         1 VT4       0.059700
     24 H142        -3.1340    -2.2160    -0.0920 hc         1 VT4       0.059700
     25 H4           1.0880    -1.8380     2.2490 h4         1 VT4       0.211000
     26 H13          1.9120     1.6260     1.0250 ha         1 VT4       0.117000
     27 H10          6.7000     1.4720    -0.3530 ha         1 VT4       0.110000
     28 H801         5.1120    -1.6100    -0.9380 hc         1 VT4       0.042367
     29 H802         6.6670    -0.9200    -0.4540 hc         1 VT4       0.042367
     30 H803         5.6170    -1.6630     0.7600 hc         1 VT4       0.042367
     31 H11          5.5880     3.6550     0.0470 ha         1 VT4       0.112000
     32 H12          3.1950     3.7370     0.7370 ha         1 VT4       0.109000
     33 H151        -3.3450     0.0980     0.9680 hc         1 VT4       0.047200
     34 H152        -3.1110     0.8090    -0.6250 hc         1 VT4       0.047200
     35 H161        -5.1810    -0.3520    -1.4510 hc         1 VT4       0.038700
     36 H162        -5.4140    -1.0710     0.1430 hc         1 VT4       0.038700
     37 H171        -5.6520     1.2220     1.1420 hc         1 VT4       0.039700
     38 H172        -5.4200     1.9410    -0.4520 hc         1 VT4       0.039700
     39 H181        -7.4930     0.7810    -1.2770 hc         1 VT4       0.037200
     40 H182        -7.7260     0.0620     0.3170 hc         1 VT4       0.037200
     41 H191        -8.0030     2.3560     1.3190 hc         1 VT4       0.032700
     42 H192        -7.7690     3.0810    -0.2890 hc         1 VT4       0.032700
     43 H193        -9.1870     2.0580     0.0280 hc         1 VT4       0.032700
     44 H211        -1.9260    -3.1700     1.6380 h1         1 VT4       0.054367
     45 H212        -0.9580    -2.4070     2.9210 h1         1 VT4       0.054367
     46 H213        -2.3460    -1.5370     2.2370 h1         1 VT4       0.054367
     47 C21         -1.5190    -2.2160     1.9980 c3         1 VT4       0.201100
@<TRIPOS>BOND
     1     1     2 2   
     2     1     5 1   
     3     1    22 1   
     4     2    12 1   
     5     2    21 1   
     6     3     4 2   
     7     3    21 1   
     8     3    25 1   
     9     4     5 1   
    10     4    20 1   
    11     5    18 2   
    12     6     7 ar  
    13     6    11 ar  
    14     6    20 1   
    15     7     8 ar  
    16     7    19 1   
    17     8     9 ar  
    18     8    27 1   
    19     9    10 ar  
    20     9    31 1   
    21    10    11 ar  
    22    10    32 1   
    23    11    26 1   
    24    12    13 1   
    25    12    23 1   
    26    12    24 1   
    27    13    14 1   
    28    13    33 1   
    29    13    34 1   
    30    14    15 1   
    31    14    35 1   
    32    14    36 1   
    33    15    16 1   
    34    15    37 1   
    35    15    38 1   
    36    16    17 1   
    37    16    39 1   
    38    16    40 1   
    39    17    41 1   
    40    17    42 1   
    41    17    43 1   
    42    19    28 1   
    43    19    29 1   
    44    19    30 1   
    45    21    47 1   
    46    44    47 1   
    47    45    47 1   
    48    46    47 1   
@<TRIPOS>SUBSTRUCTURE
     1 VT4         1 TEMP              0 ****  ****    0 ROOT
