@<TRIPOS>MOLECULE
VT4
   47    48     1     0     0
SMALL
abcg2


@<TRIPOS>ATOM
      1 C1          -0.4240    -0.7390    -1.3260 cc         1 VT4      -0.363200
      2 C2          -1.2110    -1.2070    -0.3140 cd         1 VT4       0.138800
      3 C4           0.6810    -1.3810     1.0700 cc         1 VT4       0.010000
      4 C5           1.4990    -0.9310     0.0910 cd         1 VT4      -0.078100
      5 C6           0.9970    -0.5670    -1.2170 c          1 VT4       0.565500
      6 C8           3.4760     0.3180     0.3230 ca         1 VT4       0.141100
      7 C9           4.8620     0.2770     0.1450 ca         1 VT4      -0.090300
      8 C10          5.5540     1.4820     0.1800 ca         1 VT4      -0.086000
      9 C11          4.9040     2.6940     0.3810 ca         1 VT4      -0.137000
     10 C12          3.5300     2.7060     0.5590 ca         1 VT4      -0.084000
     11 C13          2.8110     1.5180     0.5330 ca         1 VT4      -0.167000
     12 C14         -2.6940    -1.3330    -0.4960 c3         1 VT4      -0.050200
     13 C15         -3.4500    -0.0750    -0.0570 c3         1 VT4      -0.075400
     14 C16         -4.9500    -0.2060    -0.2840 c3         1 VT4      -0.076400
     15 C17         -5.7220     1.0470     0.1040 c3         1 VT4      -0.075400
     16 C18         -7.2210     0.9280    -0.1470 c3         1 VT4      -0.074400
     17 C19         -7.9850     2.1870     0.2400 c3         1 VT4      -0.089100
     18 O17          1.7300    -0.1600    -2.1240 o          1 VT4      -0.558100
     19 C80          5.5680    -1.0260    -0.0810 c3         1 VT4      -0.034800
     20 O7           2.8430    -0.8910     0.3240 os         1 VT4      -0.231200
     21 N           -0.6570    -1.5280     0.8890 na         1 VT4      -0.486200
     22 H1          -0.8980    -0.5000    -2.2690 ha         1 VT4       0.207000
     23 H141        -2.8850    -1.5060    -1.5570 hc         1 VT4       0.059700
     24 H142        -3.0860    -2.2070     0.0290 hc         1 VT4       0.059700
     25 H4           1.0700    -1.6590     2.0400 h4         1 VT4       0.211000
     26 H13          1.7390     1.5380     0.6850 ha         1 VT4       0.117000
     27 H10          6.6290     1.4680     0.0430 ha         1 VT4       0.110000
     28 H801         5.2000    -1.5320    -0.9750 hc         1 VT4       0.042367
     29 H802         6.6380    -0.8660    -0.2050 hc         1 VT4       0.042367
     30 H803         5.4310    -1.7140     0.7550 hc         1 VT4       0.042367
     31 H11          5.4690     3.6160     0.3990 ha         1 VT4       0.112000
     32 H12          3.0060     3.6390     0.7230 ha         1 VT4       0.109000
     33 H151        -3.2580     0.1390     0.9990 hc         1 VT4       0.047200
     34 H152        -3.0640     0.7830    -0.6160 hc         1 VT4       0.047200
     35 H161        -5.1340    -0.4370    -1.3390 hc         1 VT4       0.038700
     36 H162        -5.3310    -1.0620     0.2840 hc         1 VT4       0.038700
     37 H171        -5.5490     1.2710     1.1620 hc         1 VT4       0.039700
     38 H172        -5.3280     1.9040    -0.4540 hc         1 VT4       0.039700
     39 H181        -7.3910     0.7040    -1.2040 hc         1 VT4       0.037200
     40 H182        -7.6140     0.0730     0.4110 hc         1 VT4       0.037200
     41 H191        -7.8680     2.4080     1.3030 hc         1 VT4       0.032700
     42 H192        -7.6230     3.0540    -0.3170 hc         1 VT4       0.032700
     43 H193        -9.0520     2.0870     0.0390 hc         1 VT4       0.032700
     44 H211        -1.8380    -3.0650     1.7200 h1         1 VT4       0.054367
     45 H212        -0.8300    -2.1720     2.8600 h1         1 VT4       0.054367
     46 H213        -2.2880    -1.4240     2.2240 h1         1 VT4       0.054367
     47 C21         -1.4560    -2.0790     1.9780 c3         1 VT4       0.201100
@<TRIPOS>BOND
     1     1     2 2   
     2     1     5 1   
     3     1    22 1   
     4     2    12 1   
     5     2    21 1   
     6     3     4 2   
     7     3    21 1   
     8     3    25 1   
     9     4     5 1   
    10     4    20 1   
    11     5    18 2   
    12     6     7 ar  
    13     6    11 ar  
    14     6    20 1   
    15     7     8 ar  
    16     7    19 1   
    17     8     9 ar  
    18     8    27 1   
    19     9    10 ar  
    20     9    31 1   
    21    10    11 ar  
    22    10    32 1   
    23    11    26 1   
    24    12    13 1   
    25    12    23 1   
    26    12    24 1   
    27    13    14 1   
    28    13    33 1   
    29    13    34 1   
    30    14    15 1   
    31    14    35 1   
    32    14    36 1   
    33    15    16 1   
    34    15    37 1   
    35    15    38 1   
    36    16    17 1   
    37    16    39 1   
    38    16    40 1   
    39    17    41 1   
    40    17    42 1   
    41    17    43 1   
    42    19    28 1   
    43    19    29 1   
    44    19    30 1   
    45    21    47 1   
    46    44    47 1   
    47    45    47 1   
    48    46    47 1   
@<TRIPOS>SUBSTRUCTURE
     1 VT4         1 TEMP              0 ****  ****    0 ROOT
