@<TRIPOS>MOLECULE
VT5
   43    45     1     0     0
SMALL
No Charge or Current Charge


@<TRIPOS>ATOM
      1 C           -3.8900     0.3880    -2.4820 c3         1 VT5      -0.193100
      2 C1          -3.8540     0.0290    -0.9970 c          1 VT5       0.597300
      3 O           -4.8560     0.1380    -0.3020 o          1 VT5      -0.510100
      4 C2          -2.6180    -0.6350    -0.4920 ce         1 VT5      -0.290400
      5 C3          -2.4430    -1.6150     0.4200 cf         1 VT5       0.109900
      6 C4          -1.0060    -1.8070     0.7120 c          1 VT5       0.522200
      7 O1          -0.5270    -2.6910     1.4150 o          1 VT5      -0.518000
      8 N           -0.3070    -0.8260    -0.0060 n          1 VT5      -0.217400
      9 C5          -1.2580     0.0330    -0.7860 c5         1 VT5       0.181900
     10 C6          -1.2200     1.5350    -0.3280 c6         1 VT5      -0.065700
     11 C11         -1.3770     1.7110     1.2140 c6         1 VT5      -0.072400
     12 C10         -1.4060     3.2090     1.6090 c6         1 VT5      -0.073900
     13 C9          -0.1490     3.9520     1.0930 c6         1 VT5      -0.076400
     14 C8           0.0140     3.7790    -0.4370 c6         1 VT5      -0.073900
     15 C7           0.0530     2.2810    -0.8270 c6         1 VT5      -0.072400
     16 C12          1.1280    -0.7630    -0.1480 ca         1 VT5      -0.078000
     17 C13          1.6840    -0.8290    -1.4440 ca         1 VT5      -0.091000
     18 C14          3.0750    -0.9310    -1.6220 ca         1 VT5      -0.111000
     19 C15          3.9220    -1.0150    -0.5070 ca         1 VT5       0.140000
     20 C16          3.3810    -1.0170     0.7850 ca         1 VT5      -0.140000
     21 C17          1.9930    -0.9190     0.9630 ca         1 VT5       0.195000
     22 F            1.5070    -0.8840     2.2240 f          1 VT5      -0.156000
     23 Cl           5.6620    -1.1440    -0.7320 cl         1 VT5      -0.183000
     24 O2          -3.4260    -2.3530     0.9800 oh         1 VT5      -0.463100
     25 H1          -4.8930     0.6690    -2.8240 hc         1 VT5       0.059700
     26 H2          -3.1660     1.1830    -2.6850 hc         1 VT5       0.059700
     27 H3          -3.4820    -0.4490    -3.0600 hc         1 VT5       0.059700
     28 H4          -1.0340    -0.0180    -1.8590 h1         1 VT5       0.065700
     29 H5          -2.0720     2.0430    -0.7990 hc         1 VT5       0.055700
     30 H6          -2.3000     1.2290     1.5630 hc         1 VT5       0.045950
     31 H7          -0.5490     1.2170     1.7410 hc         1 VT5       0.045950
     32 H8          -2.3100     3.6820     1.2000 hc         1 VT5       0.040700
     33 H9          -1.4730     3.3050     2.7010 hc         1 VT5       0.040700
     34 H10         -0.2180     5.0190     1.3430 hc         1 VT5       0.041700
     35 H11          0.7430     3.5680     1.6060 hc         1 VT5       0.041700
     36 H12         -0.8140     4.2780    -0.9580 hc         1 VT5       0.040700
     37 H13          0.9360     4.2750    -0.7700 hc         1 VT5       0.040700
     38 H14          0.9580     1.8330    -0.3980 hc         1 VT5       0.045950
     39 H15          0.1430     2.1870    -1.9180 hc         1 VT5       0.045950
     40 H16          1.0430    -0.8030    -2.3220 ha         1 VT5       0.126000
     41 H17          3.4960    -0.9590    -2.6240 ha         1 VT5       0.138000
     42 H18          4.0340    -1.0940     1.6490 ha         1 VT5       0.152000
     43 H19         -3.0000    -3.0000     1.5860 ho         1 VT5       0.494000
@<TRIPOS>BOND
     1     1     2 1   
     2     1    25 1   
     3     1    26 1   
     4     1    27 1   
     5     2     3 2   
     6     2     4 1   
     7     4     5 2   
     8     4     9 1   
     9     5     6 1   
    10     5    24 1   
    11     6     7 2   
    12     6     8 1   
    13     8     9 1   
    14     8    16 1   
    15     9    10 1   
    16     9    28 1   
    17    10    11 1   
    18    10    15 1   
    19    10    29 1   
    20    11    12 1   
    21    11    30 1   
    22    11    31 1   
    23    12    13 1   
    24    12    32 1   
    25    12    33 1   
    26    13    14 1   
    27    13    34 1   
    28    13    35 1   
    29    14    15 1   
    30    14    36 1   
    31    14    37 1   
    32    15    38 1   
    33    15    39 1   
    34    16    17 ar  
    35    16    21 ar  
    36    17    18 ar  
    37    17    40 1   
    38    18    19 ar  
    39    18    41 1   
    40    19    20 ar  
    41    19    23 1   
    42    20    21 ar  
    43    20    42 1   
    44    21    22 1   
    45    24    43 1   
@<TRIPOS>SUBSTRUCTURE
     1 VT5         1 TEMP              0 ****  ****    0 ROOT
