@<TRIPOS>MOLECULE
VT5
   43    45     1     0     0
SMALL
bcc


@<TRIPOS>ATOM
      1 C           -3.8720     0.8040    -2.1460 c3         1 VT5      -0.193100
      2 C1          -3.8910    -0.1940    -1.0190 c          1 VT5       0.597300
      3 O           -4.9390    -0.6580    -0.6100 o          1 VT5      -0.510100
      4 C2          -2.6140    -0.6140    -0.4340 ce         1 VT5      -0.290400
      5 C3          -2.4570    -1.6460     0.4150 cf         1 VT5       0.109900
      6 C4          -1.0110    -1.8670     0.6730 c          1 VT5       0.664700
      7 O1          -0.5420    -2.7740     1.3290 o          1 VT5      -0.593500
      8 N           -0.3580    -0.8990    -0.0100 n          1 VT5      -0.377000
      9 C5          -1.2640    -0.0150    -0.7410 c5         1 VT5       0.181900
     10 C6          -1.1420     1.4660    -0.3350 c6         1 VT5      -0.065700
     11 C11         -1.3180     1.7100     1.1630 c6         1 VT5      -0.072400
     12 C10         -1.3310     3.2060     1.4660 c6         1 VT5      -0.073900
     13 C9          -0.0770     3.8950     0.9380 c6         1 VT5      -0.076400
     14 C8           0.1110     3.6290    -0.5520 c6         1 VT5      -0.073900
     15 C7           0.1400     2.1310    -0.8410 c6         1 VT5      -0.072400
     16 C12          1.0370    -0.8970    -0.1600 ca         1 VT5       0.014600
     17 C13          1.6250    -1.0100    -1.4150 ca         1 VT5      -0.109000
     18 C14          3.0000    -0.9920    -1.5670 ca         1 VT5      -0.129000
     19 C15          3.7990    -0.8810    -0.4390 ca         1 VT5       0.048400
     20 C16          3.2480    -0.7780     0.8280 ca         1 VT5      -0.158000
     21 C17          1.8730    -0.7830     0.9430 ca         1 VT5       0.159900
     22 F            1.3350    -0.6500     2.1560 f          1 VT5      -0.120900
     23 CL           5.5180    -0.8690    -0.6080 cl         1 VT5      -0.091400
     24 O2          -3.3530    -2.4510     0.9410 oh         1 VT5      -0.424100
     25 H1          -4.7110     0.6250    -2.8150 hc         1 VT5       0.059700
     26 H2          -3.9880     1.8120    -1.7410 hc         1 VT5       0.059700
     27 H3          -2.9480     0.7850    -2.7220 hc         1 VT5       0.059700
     28 H4          -1.0540    -0.0990    -1.8150 h1         1 VT5       0.065700
     29 H5          -1.9670     1.9730    -0.8490 hc         1 VT5       0.055700
     30 H6          -2.2420     1.2490     1.5210 hc         1 VT5       0.045950
     31 H7          -0.4970     1.2410     1.7140 hc         1 VT5       0.045950
     32 H8          -2.2150     3.6600     1.0060 hc         1 VT5       0.040700
     33 H9          -1.4270     3.3640     2.5430 hc         1 VT5       0.040700
     34 H10         -0.1300     4.9700     1.1280 hc         1 VT5       0.041700
     35 H11          0.7970     3.5240     1.4840 hc         1 VT5       0.041700
     36 H12         -0.7110     4.0880    -1.1120 hc         1 VT5       0.040700
     37 H13          1.0320     4.0960    -0.9080 hc         1 VT5       0.040700
     38 H14          1.0160     1.6980    -0.3520 hc         1 VT5       0.045950
     39 H15          0.2590     1.9530    -1.9140 hc         1 VT5       0.045950
     40 H16          0.9960    -1.1110    -2.2900 ha         1 VT5       0.144000
     41 H17          3.4390    -1.0780    -2.5510 ha         1 VT5       0.156000
     42 H18          3.8670    -0.6850     1.7100 ha         1 VT5       0.170000
     43 H19         -2.9070    -3.1350     1.4640 ho         1 VT5       0.455000
@<TRIPOS>BOND
     1     1     2 1   
     2     1    25 1   
     3     1    26 1   
     4     1    27 1   
     5     2     3 2   
     6     2     4 1   
     7     4     5 2   
     8     4     9 1   
     9     5     6 1   
    10     5    24 1   
    11     6     7 2   
    12     6     8 1   
    13     8     9 1   
    14     8    16 1   
    15     9    10 1   
    16     9    28 1   
    17    10    11 1   
    18    10    15 1   
    19    10    29 1   
    20    11    12 1   
    21    11    30 1   
    22    11    31 1   
    23    12    13 1   
    24    12    32 1   
    25    12    33 1   
    26    13    14 1   
    27    13    34 1   
    28    13    35 1   
    29    14    15 1   
    30    14    36 1   
    31    14    37 1   
    32    15    38 1   
    33    15    39 1   
    34    16    17 ar  
    35    16    21 ar  
    36    17    18 ar  
    37    17    40 1   
    38    18    19 ar  
    39    18    41 1   
    40    19    20 ar  
    41    19    23 1   
    42    20    21 ar  
    43    20    42 1   
    44    21    22 1   
    45    24    43 1   
@<TRIPOS>SUBSTRUCTURE
     1 VT5         1 TEMP              0 ****  ****    0 ROOT
