@<TRIPOS>MOLECULE
VT6
   44    45     1     0     0
SMALL
abcg2


@<TRIPOS>ATOM
      1 O4          -6.4570    -3.5850     1.2200 o          1 VT6      -0.620000
      2 C4          -6.0200    -2.6290     0.6050 c          1 VT6       0.581200
      3 C5          -5.9740    -2.5170    -0.8380 cc         1 VT6      -0.327400
      4 C7          -6.4860    -3.6490    -1.6680 c3         1 VT6       0.014100
      5 C6          -5.4680    -1.3890    -1.3640 cd         1 VT6      -0.069400
      6 N3          -5.5100    -1.5330     1.2780 ns         1 VT6      -0.469500
      7 C2          -4.9920    -0.3800     0.7470 c          1 VT6       0.621000
      8 O2          -4.5720     0.5150     1.4490 o          1 VT6      -0.557000
      9 N1          -5.0010    -0.3310    -0.6270 n          1 VT6      -0.298000
     10 C1          -4.4450     0.8290    -1.3240 c5         1 VT6       0.350700
     11 C10         -5.0480     2.1890    -0.9620 c5         1 VT6      -0.154400
     12 C3          -3.9150     2.9510    -0.2760 c5         1 VT6       0.119300
     13 O3          -3.8250     4.3110    -0.6210 oh         1 VT6      -0.702000
     14 O6          -3.0700     0.8980    -1.0790 os         1 VT6      -0.391000
     15 C8          -2.6690     2.2270    -0.7880 c5         1 VT6       0.166300
     16 C9          -1.5420     2.2190     0.2140 c3         1 VT6       0.236600
     17 O5          -0.4090     1.5940    -0.3450 os         1 VT6      -0.552400
     18 PA           1.0540     1.9830     0.3260 p5         1 VT6       1.462800
     19 O1A          1.0000     1.6860     1.7920 o          1 VT6      -0.865000
     20 O2A          1.4480     3.3520    -0.1410 o          1 VT6      -0.865000
     21 O3A          1.8500     0.8400    -0.5200 os         1 VT6      -0.699800
     22 PB           3.4870     0.5460    -0.4260 p5         1 VT6       1.492400
     23 O2B          4.0840     1.4760     0.5870 o          1 VT6      -0.831500
     24 O1B          3.9850     0.5200    -1.8390 o          1 VT6      -0.831500
     25 C3B          3.4300    -1.1690     0.2720 c3         1 VT6      -0.077000
     26 F3B          2.5040    -1.1880     1.3020 f          1 VT6      -0.241000
     27 CL1          2.7300    -2.2460    -1.0080 cl         1 VT6      -0.407000
     28 PG           5.0740    -1.8760     0.8960 p5         1 VT6       1.279500
     29 O3G          5.2750    -1.1510     2.2230 o          1 VT6      -0.892500
     30 O2G          4.8250    -3.3740     1.0350 o          1 VT6      -0.892500
     31 O1G          6.0480    -1.4850    -0.2100 o          1 VT6      -0.892500
     32 H1          -7.5490    -3.8210    -1.4920 hc         1 VT6       0.017033
     33 H2          -6.3500    -3.4460    -2.7290 hc         1 VT6       0.017033
     34 H3          -5.9650    -4.5780    -1.4340 hc         1 VT6       0.017033
     35 H4          -5.4060    -1.2560    -2.4360 h4         1 VT6       0.181000
     36 H5          -5.5150    -1.5770     2.2890 hn         1 VT6       0.321500
     37 H6          -4.6290     0.6160    -2.3800 h2         1 VT6       0.036700
     38 H7          -5.3140     2.7060    -1.8860 hc         1 VT6       0.037200
     39 H8          -5.9520     2.1120    -0.3600 hc         1 VT6       0.037200
     40 H9          -3.9920     2.8340     0.8090 h1         1 VT6       0.071700
     41 H10         -4.5100     4.7870    -0.1430 ho         1 VT6       0.472000
     42 H11         -2.3350     2.7240    -1.7110 h1         1 VT6       0.064700
     43 H12         -1.3410     3.2640     0.4850 h1         1 VT6       0.020200
     44 H13         -1.8690     1.7020     1.1230 h1         1 VT6       0.020200
@<TRIPOS>BOND
     1     1     2 2   
     2     2     3 1   
     3     2     6 1   
     4     3     4 1   
     5     3     5 2   
     6     4    32 1   
     7     4    33 1   
     8     4    34 1   
     9     5     9 1   
    10     5    35 1   
    11     6     7 1   
    12     6    36 1   
    13     7     8 2   
    14     7     9 1   
    15     9    10 1   
    16    10    11 1   
    17    10    14 1   
    18    10    37 1   
    19    11    12 1   
    20    11    38 1   
    21    11    39 1   
    22    12    13 1   
    23    12    15 1   
    24    12    40 1   
    25    13    41 1   
    26    14    15 1   
    27    15    16 1   
    28    15    42 1   
    29    16    17 1   
    30    16    43 1   
    31    16    44 1   
    32    17    18 1   
    33    18    19 1   
    34    18    20 1   
    35    18    21 1   
    36    21    22 1   
    37    22    23 1   
    38    22    24 1   
    39    22    25 1   
    40    25    26 1   
    41    25    27 1   
    42    25    28 1   
    43    28    29 1   
    44    28    30 1   
    45    28    31 1   
@<TRIPOS>SUBSTRUCTURE
     1 VT6         1 TEMP              0 ****  ****    0 ROOT
