@<TRIPOS>MOLECULE
VT6
   44    45     1     0     0
SMALL
No Charge or Current Charge


@<TRIPOS>ATOM
      1 O4          -6.0030    -4.1830     0.3950 o          1 VT6      -0.620000
      2 C4          -5.6280    -3.0890     0.0030 c          1 VT6       0.581200
      3 C5          -6.0780    -2.4360    -1.2450 cc         1 VT6      -0.327400
      4 C7          -7.0790    -3.2050    -2.0730 c3         1 VT6       0.014100
      5 C6          -5.5820    -1.1980    -1.5920 cd         1 VT6      -0.069400
      6 N3          -4.7350    -2.3620     0.7200 ns         1 VT6      -0.469500
      7 C2          -4.2160    -1.1370     0.4350 c          1 VT6       0.621000
      8 O2          -3.4460    -0.6130     1.2240 o          1 VT6      -0.557000
      9 N1          -4.6550    -0.5490    -0.7760 n          1 VT6      -0.298000
     10 C1          -4.1050     0.7560    -1.2320 c5         1 VT6       0.350700
     11 C10         -4.8480     1.8950    -0.4620 c5         1 VT6      -0.154400
     12 C3          -3.6880     2.5860     0.3070 c5         1 VT6       0.119300
     13 O3          -3.9450     3.9790     0.5140 oh         1 VT6      -0.702000
     14 O6          -2.7000     0.9150    -0.9740 os         1 VT6      -0.391000
     15 C8          -2.5010     2.3080    -0.6610 c5         1 VT6       0.166300
     16 C9          -1.0970     2.5470    -0.0500 c3         1 VT6       0.236600
     17 O5          -0.1240     2.5210    -1.1020 os         1 VT6      -0.552400
     18 PA           1.4370     2.5200    -0.7110 p5         1 VT6       1.462800
     19 O1A          1.6840     3.4820     0.4030 o          1 VT6      -0.865000
     20 O2A          2.2360     2.8330    -1.9330 o          1 VT6      -0.865000
     21 O3A          1.5080     1.0150    -0.2610 os         1 VT6      -0.699800
     22 PB           2.9700     0.3980    -0.2210 p5         1 VT6       1.492400
     23 O2B          3.9800     1.3700     0.3120 o          1 VT6      -0.831500
     24 O1B          3.3140    -0.1080    -1.5930 o          1 VT6      -0.831500
     25 C3B          2.5430    -1.0250     0.9180 c3         1 VT6      -0.077000
     26 F3B          1.7580    -0.6070     1.9630 f          1 VT6      -0.241000
     27 Cl1          1.6390    -2.4550     0.1210 cl         1 VT6      -0.407000
     28 PG           4.2600    -1.4070     1.5380 p5         1 VT6       1.279500
     29 O3G          4.7040    -0.4290     2.5780 o          1 VT6      -0.892500
     30 O2G          4.1960    -2.7400     2.2170 o          1 VT6      -0.892500
     31 O1G          5.2720    -1.5060     0.4430 o          1 VT6      -0.892500
     32 H1          -7.9970    -3.3950    -1.5040 hc         1 VT6       0.017033
     33 H2          -7.3580    -2.6480    -2.9760 hc         1 VT6       0.017033
     34 H3          -6.6680    -4.1700    -2.3920 hc         1 VT6       0.017033
     35 H4          -5.8590    -0.6520    -2.4910 h4         1 VT6       0.181000
     36 H5          -4.4190    -2.7790     1.5800 hn         1 VT6       0.321500
     37 H6          -4.2930     0.8350    -2.3100 h2         1 VT6       0.036700
     38 H7          -5.3280     2.5760    -1.1740 hc         1 VT6       0.037200
     39 H8          -5.6310     1.5320     0.2140 hc         1 VT6       0.037200
     40 H9          -3.5070     2.0800     1.2680 h1         1 VT6       0.071700
     41 H10         -4.7690     4.0430     1.0510 ho         1 VT6       0.472000
     42 H11         -2.5990     2.9030    -1.5800 h1         1 VT6       0.064700
     43 H12         -1.0900     3.5260     0.4460 h1         1 VT6       0.020200
     44 H13         -0.8930     1.7760     0.7060 h1         1 VT6       0.020200
@<TRIPOS>BOND
     1     1     2 2   
     2     2     3 1   
     3     2     6 1   
     4     3     4 1   
     5     3     5 2   
     6     4    32 1   
     7     4    33 1   
     8     4    34 1   
     9     5     9 1   
    10     5    35 1   
    11     6     7 1   
    12     6    36 1   
    13     7     8 2   
    14     7     9 1   
    15     9    10 1   
    16    10    11 1   
    17    10    14 1   
    18    10    37 1   
    19    11    12 1   
    20    11    38 1   
    21    11    39 1   
    22    12    13 1   
    23    12    15 1   
    24    12    40 1   
    25    13    41 1   
    26    14    15 1   
    27    15    16 1   
    28    15    42 1   
    29    16    17 1   
    30    16    43 1   
    31    16    44 1   
    32    17    18 1   
    33    18    19 1   
    34    18    20 1   
    35    18    21 1   
    36    21    22 1   
    37    22    23 1   
    38    22    24 1   
    39    22    25 1   
    40    25    26 1   
    41    25    27 1   
    42    25    28 1   
    43    28    29 1   
    44    28    30 1   
    45    28    31 1   
@<TRIPOS>SUBSTRUCTURE
     1 VT6         1 TEMP              0 ****  ****    0 ROOT
