@<TRIPOS>MOLECULE
VT7
   44    45     1     0     0
SMALL
No Charge or Current Charge


@<TRIPOS>ATOM
      1 O4          -6.2460    -3.2300     1.8890 o          1 VT7      -0.629000
      2 C4          -5.4950    -2.4650     1.3040 c          1 VT7       0.576200
      3 C5          -4.7390    -2.7930     0.0750 cc         1 VT7      -0.328400
      4 C5M         -4.9340    -4.1860    -0.4730 c3         1 VT7       0.017100
      5 C6          -3.9140    -1.8490    -0.4990 cd         1 VT7      -0.089400
      6 N3          -5.2950    -1.2030     1.7600 ns         1 VT7      -0.469500
      7 C2          -4.5030    -0.2290     1.2360 c          1 VT7       0.622000
      8 O2          -4.4760     0.8710     1.7660 o          1 VT7      -0.568000
      9 N1          -3.7850    -0.5810     0.0680 n          1 VT7      -0.295000
     10 C1          -2.8330     0.3770    -0.5570 c5         1 VT7       0.351700
     11 C9          -3.6540     1.4080    -1.3980 c5         1 VT7      -0.152400
     12 C3          -3.2670     2.7580    -0.7300 c5         1 VT7       0.118300
     13 O3          -3.3020     3.8410    -1.6660 oh         1 VT7      -0.706000
     14 O6          -2.0630     1.1320     0.3910 os         1 VT7      -0.390000
     15 C7          -1.8360     2.4180    -0.2160 c5         1 VT7       0.170300
     16 C8          -1.2500     3.4320     0.8130 c3         1 VT7       0.233600
     17 O5           0.1920     3.4720     0.7750 os         1 VT7      -0.554400
     18 PA           1.1160     2.2170     1.2040 p5         1 VT7       1.467800
     19 O1A          0.5330     1.5320     2.3960 o          1 VT7      -0.869500
     20 O2A          2.4970     2.7210     1.4650 o          1 VT7      -0.869500
     21 O3A          0.9900     1.4090    -0.1400 os         1 VT7      -0.696800
     22 PB           2.0640     0.2630    -0.3350 p5         1 VT7       1.481400
     23 O2B          2.3100    -0.5140     0.9230 o          1 VT7      -0.828000
     24 O1B          3.3150     0.8300    -0.9310 o          1 VT7      -0.828000
     25 C3B          1.0440    -0.7520    -1.4870 c3         1 VT7      -0.369000
     26 PG           2.3170    -1.6390    -2.4530 p5         1 VT7       1.272500
     27 O3G          3.3610    -2.2530    -1.5830 o          1 VT7      -0.893167
     28 O2G          1.6120    -2.7300    -3.1920 o          1 VT7      -0.893167
     29 O1G          2.9280    -0.7380    -3.4740 o          1 VT7      -0.893167
     30 F2B          0.2260    -1.6080    -0.8110 f          1 VT7      -0.141500
     31 F3B          0.2580     0.0040    -2.3060 f          1 VT7      -0.141500
     32 H1          -4.6260    -4.9430     0.2590 hc         1 VT7       0.014700
     33 H2          -5.9850    -4.3650    -0.7290 hc         1 VT7       0.014700
     34 H3          -4.3400    -4.3410    -1.3810 hc         1 VT7       0.014700
     35 H4          -3.3210    -2.0100    -1.3960 h4         1 VT7       0.179000
     36 H5          -5.8040    -0.9510     2.5910 hn         1 VT7       0.317500
     37 H6          -2.1610    -0.1980    -1.2040 h2         1 VT7       0.038700
     38 H7          -3.3420     1.3660    -2.4480 hc         1 VT7       0.036700
     39 H8          -4.7360     1.2330    -1.3760 hc         1 VT7       0.036700
     40 H9          -3.9260     2.9670     0.1260 h1         1 VT7       0.070700
     41 H10         -4.2230     3.8930    -2.0110 ho         1 VT7       0.471000
     42 H11         -1.1470     2.3130    -1.0650 h1         1 VT7       0.063700
     43 H12         -1.6350     4.4300     0.5700 h1         1 VT7       0.018200
     44 H13         -1.6110     3.1850     1.8200 h1         1 VT7       0.018200
@<TRIPOS>BOND
     1     1     2 2   
     2     2     3 1   
     3     2     6 1   
     4     3     4 1   
     5     3     5 2   
     6     4    32 1   
     7     4    33 1   
     8     4    34 1   
     9     5     9 1   
    10     5    35 1   
    11     6     7 1   
    12     6    36 1   
    13     7     8 2   
    14     7     9 1   
    15     9    10 1   
    16    10    11 1   
    17    10    14 1   
    18    10    37 1   
    19    11    12 1   
    20    11    38 1   
    21    11    39 1   
    22    12    13 1   
    23    12    15 1   
    24    12    40 1   
    25    13    41 1   
    26    14    15 1   
    27    15    16 1   
    28    15    42 1   
    29    16    17 1   
    30    16    43 1   
    31    16    44 1   
    32    17    18 1   
    33    18    19 1   
    34    18    20 1   
    35    18    21 1   
    36    21    22 1   
    37    22    23 1   
    38    22    24 1   
    39    22    25 1   
    40    25    26 1   
    41    25    30 1   
    42    25    31 1   
    43    26    27 1   
    44    26    28 1   
    45    26    29 1   
@<TRIPOS>SUBSTRUCTURE
     1 VT7         1 TEMP              0 ****  ****    0 ROOT
