@<TRIPOS>MOLECULE
VT7
   44    45     1     0     0
SMALL
abcg2


@<TRIPOS>ATOM
      1 O4          -6.4120    -3.3920     1.3970 o          1 VT7      -0.629000
      2 C4          -5.9320    -2.4920     0.7310 c          1 VT7       0.576200
      3 C5          -5.7660    -2.5190    -0.7080 cc         1 VT7      -0.328400
      4 C5M         -6.1960    -3.7320    -1.4640 c3         1 VT7       0.017100
      5 C6          -5.2240    -1.4390    -1.2960 cd         1 VT7      -0.089400
      6 N3          -5.4880    -1.3300     1.3340 ns         1 VT7      -0.469500
      7 C2          -4.9320    -0.2260     0.7400 c          1 VT7       0.622000
      8 O2          -4.5740     0.7370     1.3850 o          1 VT7      -0.568000
      9 N1          -4.8270    -0.3090    -0.6290 n          1 VT7      -0.295000
     10 C1          -4.2240     0.7890    -1.3840 c5         1 VT7       0.351700
     11 C9          -4.8630     2.1680    -1.1950 c5         1 VT7      -0.152400
     12 C3          -3.7890     3.0070    -0.5030 c5         1 VT7       0.118300
     13 O3          -3.6820     4.3280    -0.9730 oh         1 VT7      -0.706000
     14 O6          -2.8730     0.8980    -1.0380 os         1 VT7      -0.390000
     15 C7          -2.5030     2.2540    -0.8450 c5         1 VT7       0.170300
     16 C8          -1.4570     2.3480     0.2370 c3         1 VT7       0.233600
     17 O5          -0.2770     1.7140    -0.1970 os         1 VT7      -0.554400
     18 PA           1.0390     1.8020     0.8060 p5         1 VT7       1.467800
     19 O1A          0.6880     1.1570     2.1110 o          1 VT7      -0.869500
     20 O2A          1.5700     3.2040     0.7820 o          1 VT7      -0.869500
     21 O3A          1.9340     0.8230    -0.1370 os         1 VT7      -0.696800
     22 PB           3.5690     0.5410     0.0400 p5         1 VT7       1.481400
     23 O2B          3.9830     0.9730     1.4140 o          1 VT7      -0.828000
     24 O1B          4.2390     1.0990    -1.1820 o          1 VT7      -0.828000
     25 C3B          3.5250    -1.3030    -0.0830 c3         1 VT7      -0.369000
     26 PG           5.1630    -2.2090    -0.2850 p5         1 VT7       1.272500
     27 O3G          6.0770    -1.4930     0.7060 o          1 VT7      -0.893167
     28 O2G          4.8230    -3.6530     0.0850 o          1 VT7      -0.893167
     29 O1G          5.5220    -2.0060    -1.7530 o          1 VT7      -0.893167
     30 F2B          2.8700    -1.7610     1.0510 f          1 VT7      -0.141500
     31 F3B          2.6780    -1.6450    -1.1290 f          1 VT7      -0.141500
     32 H1          -5.6770    -4.6250    -1.1130 hc         1 VT7       0.014700
     33 H2          -7.2660    -3.9140    -1.3480 hc         1 VT7       0.014700
     34 H3          -5.9890    -3.6220    -2.5270 hc         1 VT7       0.014700
     35 H4          -5.0750    -1.4080    -2.3680 h4         1 VT7       0.179000
     36 H5          -5.5790    -1.2760     2.3410 hn         1 VT7       0.317500
     37 H6          -4.3200     0.4770    -2.4270 h2         1 VT7       0.038700
     38 H7          -5.0680     2.5930    -2.1790 hc         1 VT7       0.036700
     39 H8          -5.8060     2.1310    -0.6520 hc         1 VT7       0.036700
     40 H9          -3.9480     2.9970     0.5790 h1         1 VT7       0.070700
     41 H10         -4.3850     4.8470    -0.5730 ho         1 VT7       0.471000
     42 H11         -2.1000     2.6640    -1.7830 h1         1 VT7       0.063700
     43 H12         -1.2870     3.4110     0.4490 h1         1 VT7       0.018200
     44 H13         -1.8470     1.8870     1.1530 h1         1 VT7       0.018200
@<TRIPOS>BOND
     1     1     2 2   
     2     2     3 1   
     3     2     6 1   
     4     3     4 1   
     5     3     5 2   
     6     4    32 1   
     7     4    33 1   
     8     4    34 1   
     9     5     9 1   
    10     5    35 1   
    11     6     7 1   
    12     6    36 1   
    13     7     8 2   
    14     7     9 1   
    15     9    10 1   
    16    10    11 1   
    17    10    14 1   
    18    10    37 1   
    19    11    12 1   
    20    11    38 1   
    21    11    39 1   
    22    12    13 1   
    23    12    15 1   
    24    12    40 1   
    25    13    41 1   
    26    14    15 1   
    27    15    16 1   
    28    15    42 1   
    29    16    17 1   
    30    16    43 1   
    31    16    44 1   
    32    17    18 1   
    33    18    19 1   
    34    18    20 1   
    35    18    21 1   
    36    21    22 1   
    37    22    23 1   
    38    22    24 1   
    39    22    25 1   
    40    25    26 1   
    41    25    30 1   
    42    25    31 1   
    43    26    27 1   
    44    26    28 1   
    45    26    29 1   
@<TRIPOS>SUBSTRUCTURE
     1 VT7         1 TEMP              0 ****  ****    0 ROOT
