@<TRIPOS>MOLECULE
VT8
   44    45     1     0     0
SMALL
abcg2


@<TRIPOS>ATOM
      1 N1           5.0570    -0.3050     0.5890 n          1 VT8      -0.300000
      2 C2           5.1810    -0.1870    -0.7760 c          1 VT8       0.622000
      3 O2           4.8380     0.7940    -1.4000 o          1 VT8      -0.550000
      4 N3           5.7410    -1.2770    -1.3910 ns         1 VT8      -0.469500
      5 C4           6.1740    -2.4560    -0.8130 c          1 VT8       0.587200
      6 O4           6.6590    -3.3400    -1.4960 o          1 VT8      -0.611000
      7 C5           5.9910    -2.5190     0.6230 cc         1 VT8      -0.323400
      8 C7           6.4100    -3.7520     1.3530 c3         1 VT8       0.010100
      9 C6           5.4440    -1.4530     1.2320 cd         1 VT8      -0.040400
     10 PA          -0.7770     1.8760    -0.8710 p5         1 VT8       1.464800
     11 PB          -3.3500     0.7340    -0.1010 p5         1 VT8       1.503400
     12 PG          -5.1240    -1.9410    -0.0190 p5         1 VT8       1.296500
     13 C1           4.4480     0.7750     1.3640 c5         1 VT8       0.349700
     14 O1A         -0.4380     1.1970    -2.1600 o          1 VT8      -0.868000
     15 O2B         -3.7390     1.1200    -1.4940 o          1 VT8      -0.837000
     16 O1G         -5.6020    -1.5670    -1.4160 o          1 VT8      -0.901833
     17 C8           5.0990     2.1550     1.2220 c5         1 VT8      -0.154400
     18 O2A         -1.2620     3.2960    -0.8780 o          1 VT8      -0.868000
     19 O1B         -4.0150     1.3690     1.0820 o          1 VT8      -0.837000
     20 CL1         -2.3380    -1.8230    -1.1670 cl         1 VT8      -0.349000
     21 O2G         -4.8180    -3.4200     0.1790 o          1 VT8      -0.901833
     22 C3           4.0390     3.0200     0.5390 c5         1 VT8       0.119300
     23 O3           3.9320     4.3270     1.0480 oh         1 VT8      -0.703000
     24 O3A         -1.7150     0.9510     0.0860 os         1 VT8      -0.695800
     25 C3B         -3.4090    -1.1080     0.0890 c3         1 VT8      -0.089000
     26 O3G         -5.8960    -1.2890     1.1200 o          1 VT8      -0.901833
     27 C9           2.7450     2.2640     0.8410 c5         1 VT8       0.169300
     28 O6           3.1050     0.9020     0.9980 os         1 VT8      -0.386000
     29 C10          1.7140     2.3970    -0.2520 c3         1 VT8       0.233600
     30 O5           0.5230     1.7620     0.1500 os         1 VT8      -0.550400
     31 CL2         -2.6760    -1.5100     1.6880 cl         1 VT8      -0.349000
     32 H1           5.8450    -1.1980    -2.3960 hn         1 VT8       0.323500
     33 H2           5.8900    -4.6330     0.9780 hc         1 VT8       0.021033
     34 H3           7.4800    -3.9360     1.2400 hc         1 VT8       0.021033
     35 H4           6.1970    -3.6650     2.4170 hc         1 VT8       0.021033
     36 H5           5.2820    -1.4490     2.3020 h4         1 VT8       0.186000
     37 H6           4.5260     0.4360     2.4000 h2         1 VT8       0.039700
     38 H9           5.2940     2.5510     2.2200 hc         1 VT8       0.038200
     39 H10          6.0480     2.1260     0.6890 hc         1 VT8       0.038200
     40 H13          4.2130     3.0410    -0.5400 h1         1 VT8       0.069700
     41 H14          4.6390     4.8560     0.6680 ho         1 VT8       0.472000
     42 H15          2.3310     2.6480     1.7850 h1         1 VT8       0.067700
     43 H16          1.5550     3.4670    -0.4380 h1         1 VT8       0.017700
     44 H17          2.1130     1.9580    -1.1750 h1         1 VT8       0.017700
@<TRIPOS>BOND
     1     1     2 1   
     2     1     9 1   
     3     1    13 1   
     4     2     3 2   
     5     2     4 1   
     6     4     5 1   
     7     4    32 1   
     8     5     6 2   
     9     5     7 1   
    10     7     8 1   
    11     7     9 2   
    12     8    33 1   
    13     8    34 1   
    14     8    35 1   
    15     9    36 1   
    16    10    14 1   
    17    10    18 1   
    18    10    24 1   
    19    10    30 1   
    20    11    15 1   
    21    11    19 1   
    22    11    24 1   
    23    11    25 1   
    24    12    16 1   
    25    12    21 1   
    26    12    25 1   
    27    12    26 1   
    28    13    17 1   
    29    13    28 1   
    30    13    37 1   
    31    17    22 1   
    32    17    38 1   
    33    17    39 1   
    34    20    25 1   
    35    22    23 1   
    36    22    27 1   
    37    22    40 1   
    38    23    41 1   
    39    25    31 1   
    40    27    28 1   
    41    27    29 1   
    42    27    42 1   
    43    29    30 1   
    44    29    43 1   
    45    29    44 1   
@<TRIPOS>SUBSTRUCTURE
     1 VT8         1 TEMP              0 ****  ****    0 ROOT
