@<TRIPOS>MOLECULE
VT8
   44    45     1     0     0
SMALL
No Charge or Current Charge


@<TRIPOS>ATOM
      1 N1           4.0870    -0.5170     0.0530 n          1 VT8      -0.300000
      2 C2           4.9000    -0.1490    -1.0440 c          1 VT8       0.622000
      3 O2           4.9060     0.9540    -1.5650 o          1 VT8      -0.550000
      4 N3           5.7450    -1.1110    -1.5010 ns         1 VT8      -0.469500
      5 C4           5.9170    -2.3750    -1.0400 c          1 VT8       0.587200
      6 O4           6.7250    -3.1270    -1.5600 o          1 VT8      -0.611000
      7 C5           5.0570    -2.7210     0.1130 cc         1 VT8      -0.323400
      8 C7           5.2120    -4.1180     0.6630 c3         1 VT8       0.010100
      9 C6           4.1750    -1.7890     0.6170 cd         1 VT8      -0.040400
     10 PA          -0.7380     2.2500    -1.5170 p5         1 VT8       1.464800
     11 PB          -1.9210     0.3640    -0.0490 p5         1 VT8       1.503400
     12 PG          -2.5680    -1.5410     1.9040 p5         1 VT8       1.296500
     13 C1           3.0720     0.4250     0.5970 c5         1 VT8       0.349700
     14 O1A         -0.0360     1.5430    -2.6300 o          1 VT8      -0.868000
     15 O2B         -2.0990    -0.3900    -1.3360 o          1 VT8      -0.837000
     16 O1G         -3.4910    -2.0720     0.8570 o          1 VT8      -0.901833
     17 C8           3.8010     1.4630     1.5080 c5         1 VT8      -0.154400
     18 O2A         -2.0720     2.7720    -1.9370 o          1 VT8      -0.868000
     19 O1B         -3.1790     1.0370     0.4140 o          1 VT8      -0.837000
     20 Cl1          0.1870    -1.8850     0.4860 cl         1 VT8      -0.349000
     21 O2G         -2.0920    -2.7050     2.7160 o          1 VT8      -0.901833
     22 C3           3.4530     2.8100     0.8120 c5         1 VT8       0.119300
     23 O3           3.3880     3.8890     1.7510 oh         1 VT8      -0.703000
     24 O3A         -0.7680     1.4480    -0.1640 os         1 VT8      -0.695800
     25 C3B         -1.0510    -0.7040     1.2190 c3         1 VT8      -0.089000
     26 O3G         -3.3050    -0.6500     2.8530 o          1 VT8      -0.901833
     27 C9           2.0790     2.4530     0.1700 c5         1 VT8       0.169300
     28 O6           2.3750     1.1700    -0.4130 os         1 VT8      -0.386000
     29 C10          1.5850     3.4610    -0.9100 c3         1 VT8       0.233600
     30 O5           0.1460     3.4980    -0.9990 os         1 VT8      -0.550400
     31 Cl2         -0.1070     0.2230     2.5330 cl         1 VT8      -0.349000
     32 H1           6.3240    -0.8470    -2.2810 hn         1 VT8       0.323500
     33 H2           4.9800    -4.8700    -0.1010 hc         1 VT8       0.021033
     34 H3           6.2370    -4.2920     1.0120 hc         1 VT8       0.021033
     35 H4           4.5390    -4.2880     1.5120 hc         1 VT8       0.021033
     36 H5           3.5030    -1.9650     1.4530 h4         1 VT8       0.186000
     37 H6           2.3580    -0.1620     1.1840 h2         1 VT8       0.039700
     38 H9           3.3990     1.4130     2.5270 hc         1 VT8       0.038200
     39 H10          4.8830     1.3040     1.5800 hc         1 VT8       0.038200
     40 H13          4.1840     3.0330     0.0200 h1         1 VT8       0.069700
     41 H14          4.2720     3.9530     2.1780 ho         1 VT8       0.472000
     42 H15          1.3140     2.3410     0.9490 h1         1 VT8       0.067700
     43 H16          1.9460     4.4610    -0.6380 h1         1 VT8       0.017700
     44 H17          2.0330     3.2110    -1.8800 h1         1 VT8       0.017700
@<TRIPOS>BOND
     1     1     2 1   
     2     1     9 1   
     3     1    13 1   
     4     2     3 2   
     5     2     4 1   
     6     4     5 1   
     7     4    32 1   
     8     5     6 2   
     9     5     7 1   
    10     7     8 1   
    11     7     9 2   
    12     8    33 1   
    13     8    34 1   
    14     8    35 1   
    15     9    36 1   
    16    10    14 1   
    17    10    18 1   
    18    10    24 1   
    19    10    30 1   
    20    11    15 1   
    21    11    19 1   
    22    11    24 1   
    23    11    25 1   
    24    12    16 1   
    25    12    21 1   
    26    12    25 1   
    27    12    26 1   
    28    13    17 1   
    29    13    28 1   
    30    13    37 1   
    31    17    22 1   
    32    17    38 1   
    33    17    39 1   
    34    20    25 1   
    35    22    23 1   
    36    22    27 1   
    37    22    40 1   
    38    23    41 1   
    39    25    31 1   
    40    27    28 1   
    41    27    29 1   
    42    27    42 1   
    43    29    30 1   
    44    29    43 1   
    45    29    44 1   
@<TRIPOS>SUBSTRUCTURE
     1 VT8         1 TEMP              0 ****  ****    0 ROOT
