@<TRIPOS>MOLECULE
VTA
   41    44     1     0     0
SMALL
No Charge or Current Charge


@<TRIPOS>ATOM
      1 C4          22.2510   -11.3460    -9.1490 cc         1 VTA       0.309500
      2 C8          22.5640   -10.1240    -8.3620 ca         1 VTA      -0.140500
      3 C10         23.7550    -7.9620    -8.2730 ca         1 VTA      -0.057000
      4 C13         22.0490    -9.8540    -7.0610 ca         1 VTA       0.176100
      5 C15         20.0150   -10.1440    -5.9920 cx         1 VTA       0.111300
      6 C17         18.8360   -11.0770    -5.8970 cx         1 VTA      -0.099400
      7 C20         18.9580   -10.2300    -8.4340 ca         1 VTA      -0.091300
      8 C21         19.6270    -9.2710    -9.2210 ca         1 VTA      -0.043000
      9 C22         19.7550    -9.4500   -10.6090 ca         1 VTA      -0.152000
     10 C26         18.3780   -11.3520    -9.0740 ca         1 VTA       0.199000
     11 C28         24.6130    -6.9960    -8.9010 cg         1 VTA       0.331000
     12 C11         23.2760    -7.7370    -6.9760 ca         1 VTA      -0.035000
     13 C12         22.4360    -8.6820    -6.3740 ca         1 VTA      -0.197000
     14 C18         18.8440    -9.9860    -6.9470 cx         1 VTA      -0.092400
     15 C2          21.4210   -13.3300    -9.7980 cd         1 VTA      -0.140300
     16 C23         19.2010   -10.5830   -11.2220 ca         1 VTA       0.187000
     17 C25         18.5040   -11.5280   -10.4600 ca         1 VTA      -0.192000
     18 C3          21.4830   -12.4660    -8.7520 cc         1 VTA      -0.194000
     19 C9          23.4060    -9.1430    -8.9520 ca         1 VTA      -0.021000
     20 F24         19.3250   -10.7550   -12.5550 f          1 VTA      -0.184000
     21 F27         17.6740   -12.2680    -8.3720 f          1 VTA      -0.179000
     22 N29         25.3090    -6.2160    -9.4200 n1         1 VTA      -0.458000
     23 N5          22.6850   -11.4880   -10.3940 nd         1 VTA      -0.524800
     24 N6          22.1690   -12.7160   -10.8010 na         1 VTA      -0.007200
     25 O14         21.2210   -10.7570    -6.4280 os         1 VTA      -0.322100
     26 H1          20.1290    -9.4130    -5.1920 h1         1 VTA       0.087700
     27 H2          18.1670   -10.9580    -5.0480 hc         1 VTA       0.090200
     28 H3          19.0010   -12.1070    -6.2010 hc         1 VTA       0.090200
     29 H4          20.0610    -8.3900    -8.7530 ha         1 VTA       0.124000
     30 H5          20.2860    -8.7160   -11.2090 ha         1 VTA       0.141000
     31 H6          21.4390   -15.4790    -9.9900 hc         1 VTA       0.053033
     32 H7          20.0670   -14.8420    -9.0660 hc         1 VTA       0.053033
     33 H8          20.0940   -14.6830   -10.8290 hc         1 VTA       0.053033
     34 H9          23.5560    -6.8360    -6.4330 ha         1 VTA       0.126000
     35 H10         22.0950    -8.4990    -5.3590 ha         1 VTA       0.123000
     36 H11         18.1900    -9.1410    -6.7470 hc         1 VTA       0.094700
     37 H12         18.0630   -12.3960   -10.9410 ha         1 VTA       0.146000
     38 H13         21.0090   -12.6230    -7.7950 ha         1 VTA       0.152000
     39 H14         23.8080    -9.2940    -9.9520 ha         1 VTA       0.142000
     40 H15         22.3440   -13.0850   -11.7350 hn         1 VTA       0.370000
     41 C1          20.7190   -14.6540    -9.9280 c3         1 VTA      -0.030800
@<TRIPOS>BOND
     1     1     2 1   
     2     1    18 1   
     3     1    23 2   
     4     2     4 ar  
     5     2    19 ar  
     6     3    11 1   
     7     3    12 ar  
     8     3    19 ar  
     9     4    13 ar  
    10     4    25 1   
    11     5     6 1   
    12     5    14 1   
    13     5    25 1   
    14     5    26 1   
    15     6    14 1   
    16     6    27 1   
    17     6    28 1   
    18     7     8 ar  
    19     7    10 ar  
    20     7    14 1   
    21     8     9 ar  
    22     8    29 1   
    23     9    16 ar  
    24     9    30 1   
    25    10    17 ar  
    26    10    21 1   
    27    11    22 3   
    28    12    13 ar  
    29    12    34 1   
    30    13    35 1   
    31    14    36 1   
    32    15    18 2   
    33    15    24 1   
    34    15    41 1   
    35    16    17 ar  
    36    16    20 1   
    37    17    37 1   
    38    18    38 1   
    39    19    39 1   
    40    23    24 1   
    41    24    40 1   
    42    31    41 1   
    43    32    41 1   
    44    33    41 1   
@<TRIPOS>SUBSTRUCTURE
     1 VTA         1 TEMP              0 ****  ****    0 ROOT
