@<TRIPOS>MOLECULE
VTA
   41    44     1     0     0
SMALL
abcg2


@<TRIPOS>ATOM
      1 C4          22.4040   -11.0360    -9.2200 cc         1 VTA       0.309500
      2 C8          22.8080    -9.9330    -8.3380 ca         1 VTA      -0.140500
      3 C10         24.3600    -8.1300    -7.8310 ca         1 VTA      -0.057000
      4 C13         22.0460    -9.5500    -7.2090 ca         1 VTA       0.176100
      5 C15         19.8320    -9.7610    -6.2780 cx         1 VTA       0.111300
      6 C17         18.8400   -10.7660    -5.8060 cx         1 VTA      -0.099400
      7 C20         18.5090   -10.4460    -8.3870 ca         1 VTA      -0.091300
      8 C21         19.0900    -9.7170    -9.4280 ca         1 VTA      -0.043000
      9 C22         19.1480   -10.1970   -10.7290 ca         1 VTA      -0.152000
     10 C26         17.9740   -11.6850    -8.7250 ca         1 VTA       0.199000
     11 C28         25.5490    -7.4150    -8.1460 cg         1 VTA       0.331000
     12 C11         23.5980    -7.7730    -6.7150 ca         1 VTA      -0.035000
     13 C12         22.4430    -8.4700    -6.4220 ca         1 VTA      -0.197000
     14 C18         18.5080    -9.8990    -7.0010 cx         1 VTA      -0.092400
     15 C2          21.6000   -12.9020   -10.1320 cd         1 VTA      -0.140300
     16 C23         18.6170   -11.4490   -10.9840 ca         1 VTA       0.187000
     17 C25         18.0200   -12.2180   -10.0040 ca         1 VTA      -0.192000
     18 C3          21.6930   -12.2230    -8.9350 cc         1 VTA      -0.194000
     19 C9          23.9620    -9.2100    -8.6240 ca         1 VTA      -0.021000
     20 F24         18.7010   -11.9520   -12.2420 f          1 VTA      -0.184000
     21 F27         17.3700   -12.4360    -7.7710 f          1 VTA      -0.179000
     22 N29         26.4680    -6.7840    -8.4450 n1         1 VTA      -0.458000
     23 N5          22.7310   -10.9880   -10.5180 nd         1 VTA      -0.524800
     24 N6          22.2340   -12.1240   -11.0380 na         1 VTA      -0.007200
     25 O14         20.9560   -10.3000    -6.9360 os         1 VTA      -0.322100
     26 H1          20.0050    -8.8610    -5.7090 h1         1 VTA       0.087700
     27 H2          18.3220   -10.6000    -4.8730 hc         1 VTA       0.090200
     28 H3          19.0900   -11.7980    -6.0120 hc         1 VTA       0.090200
     29 H4          19.5290    -8.7530    -9.1950 ha         1 VTA       0.124000
     30 H5          19.6180    -9.6330   -11.5210 ha         1 VTA       0.141000
     31 H6          21.6800   -15.0240   -10.3930 hc         1 VTA       0.053033
     32 H7          20.1190   -14.4010    -9.8380 hc         1 VTA       0.053033
     33 H8          20.6120   -14.1920   -11.5210 hc         1 VTA       0.053033
     34 H9          23.9100    -6.9510    -6.0860 ha         1 VTA       0.126000
     35 H10         21.8710    -8.1850    -5.5540 ha         1 VTA       0.123000
     36 H11         17.8160    -9.0810    -6.8340 hc         1 VTA       0.094700
     37 H12         17.6260   -13.1990   -10.2130 ha         1 VTA       0.146000
     38 H13         21.2790   -12.5300    -7.9960 ha         1 VTA       0.152000
     39 H14         24.5530    -9.4990    -9.4800 ha         1 VTA       0.142000
     40 H15         22.3240   -12.3010   -12.0250 hn         1 VTA       0.370000
     41 C1          20.9680   -14.2030   -10.4890 c3         1 VTA      -0.030800
@<TRIPOS>BOND
     1     1     2 1   
     2     1    18 1   
     3     1    23 2   
     4     2     4 ar  
     5     2    19 ar  
     6     3    11 1   
     7     3    12 ar  
     8     3    19 ar  
     9     4    13 ar  
    10     4    25 1   
    11     5     6 1   
    12     5    14 1   
    13     5    25 1   
    14     5    26 1   
    15     6    14 1   
    16     6    27 1   
    17     6    28 1   
    18     7     8 ar  
    19     7    10 ar  
    20     7    14 1   
    21     8     9 ar  
    22     8    29 1   
    23     9    16 ar  
    24     9    30 1   
    25    10    17 ar  
    26    10    21 1   
    27    11    22 3   
    28    12    13 ar  
    29    12    34 1   
    30    13    35 1   
    31    14    36 1   
    32    15    18 2   
    33    15    24 1   
    34    15    41 1   
    35    16    17 ar  
    36    16    20 1   
    37    17    37 1   
    38    18    38 1   
    39    19    39 1   
    40    23    24 1   
    41    24    40 1   
    42    31    41 1   
    43    32    41 1   
    44    33    41 1   
@<TRIPOS>SUBSTRUCTURE
     1 VTA         1 TEMP              0 ****  ****    0 ROOT
