@<TRIPOS>MOLECULE
VTC
   25    25     1     0     0
SMALL
No Charge or Current Charge


@<TRIPOS>ATOM
      1 N1          -0.1920    19.1270   -40.3300 nv         1 VTC      -1.075000
      2 C7          -0.6930    17.8550   -40.3000 ca         1 VTC       0.300000
      3 C8          -0.5440    17.0680   -39.1500 ca         1 VTC      -0.179000
      4 C1          -0.2190    13.0880   -36.1950 c3         1 VTC       0.097300
      5 C5          -1.8600    16.0260   -41.4070 ca         1 VTC      -0.062000
      6 C6          -1.3520    17.3370   -41.4250 ca         1 VTC      -0.177000
      7 C4          -1.7090    15.2370   -40.2540 ca         1 VTC      -0.150000
      8 C3          -1.0650    15.7610   -39.1220 ca         1 VTC       0.159100
      9 C2          -1.2010    15.3480   -36.7370 c          1 VTC       0.643100
     10 O           -1.7280    16.4110   -36.4380 o          1 VTC      -0.519000
     11 N           -0.8400    14.3710   -35.7890 n          1 VTC      -0.406800
     12 C           -1.0850    14.6090   -34.3500 c3         1 VTC       0.097300
     13 H1           0.4040    19.4580   -39.5720 hn         1 VTC       0.449500
     14 H2          -0.1760    19.6490   -41.2040 hn         1 VTC       0.449500
     15 H3          -0.0240    17.4650   -38.2840 ha         1 VTC       0.125000
     16 H4          -0.0300    12.4520   -35.3220 h1         1 VTC       0.045367
     17 H5          -0.8880    12.5530   -36.8810 h1         1 VTC       0.045367
     18 H6           0.7360    13.2830   -36.7020 h1         1 VTC       0.045367
     19 H7          -2.3650    15.6220   -42.2820 ha         1 VTC       0.114000
     20 H8          -1.4690    17.9450   -42.3180 ha         1 VTC       0.114000
     21 H9          -2.0950    14.2210   -40.2340 ha         1 VTC       0.127000
     22 H10         -0.6530    13.8060   -33.7400 h1         1 VTC       0.045367
     23 H11         -0.6290    15.5620   -34.0500 h1         1 VTC       0.045367
     24 H12         -2.1650    14.6560   -34.1640 h1         1 VTC       0.045367
     25 O1          -0.9110    14.9590   -38.0180 os         1 VTC      -0.380200
@<TRIPOS>BOND
     1     1     2 1   
     2     1    13 1   
     3     1    14 1   
     4     2     3 ar  
     5     2     6 ar  
     6     3     8 ar  
     7     3    15 1   
     8     4    11 1   
     9     4    16 1   
    10     4    17 1   
    11     4    18 1   
    12     5     6 ar  
    13     5     7 ar  
    14     5    19 1   
    15     6    20 1   
    16     7     8 ar  
    17     7    21 1   
    18     8    25 1   
    19     9    10 2   
    20     9    11 1   
    21     9    25 1   
    22    11    12 1   
    23    12    22 1   
    24    12    23 1   
    25    12    24 1   
@<TRIPOS>SUBSTRUCTURE
     1 VTC         1 TEMP              0 ****  ****    0 ROOT
