@<TRIPOS>MOLECULE
VTC
   25    25     1     0     0
SMALL
abcg2


@<TRIPOS>ATOM
      1 N1           0.1550    19.0400   -40.4390 nv         1 VTC      -1.075000
      2 C7          -0.5160    17.8320   -40.3200 ca         1 VTC       0.300000
      3 C8          -0.2880    16.9970   -39.2190 ca         1 VTC      -0.179000
      4 C1           0.1090    13.3090   -36.1130 c3         1 VTC       0.097300
      5 C5          -2.1830    16.2630   -41.1120 ca         1 VTC      -0.062000
      6 C6          -1.4760    17.4460   -41.2690 ca         1 VTC      -0.177000
      7 C4          -1.9620    15.4320   -40.0160 ca         1 VTC      -0.150000
      8 C3          -1.0100    15.8240   -39.0890 ca         1 VTC       0.159100
      9 C2          -1.3040    15.2130   -36.8200 c          1 VTC       0.643100
     10 O           -2.1430    16.0860   -36.6670 o          1 VTC      -0.519000
     11 N           -0.8420    14.3850   -35.8630 n          1 VTC      -0.406800
     12 C           -1.4540    14.4050   -34.5430 c3         1 VTC       0.097300
     13 H1           1.0350    19.1020   -39.9470 hn         1 VTC       0.449500
     14 H2           0.2090    19.4180   -41.3730 hn         1 VTC       0.449500
     15 H3           0.4500    17.2610   -38.4720 ha         1 VTC       0.125000
     16 H4           0.7570    13.2120   -35.2420 h1         1 VTC       0.045367
     17 H5          -0.4080    12.3570   -36.2690 h1         1 VTC       0.045367
     18 H6           0.7180    13.5300   -36.9820 h1         1 VTC       0.045367
     19 H7          -2.9170    15.9800   -41.8570 ha         1 VTC       0.114000
     20 H8          -1.6560    18.0810   -42.1280 ha         1 VTC       0.114000
     21 H9          -2.5030    14.5060   -39.8820 ha         1 VTC       0.127000
     22 H10         -0.6730    14.4280   -33.7820 h1         1 VTC       0.045367
     23 H11         -2.0790    15.2860   -34.4450 h1         1 VTC       0.045367
     24 H12         -2.0640    13.5100   -34.3900 h1         1 VTC       0.045367
     25 O1          -0.7090    14.9670   -38.0290 os         1 VTC      -0.380200
@<TRIPOS>BOND
     1     1     2 1   
     2     1    13 1   
     3     1    14 1   
     4     2     3 ar  
     5     2     6 ar  
     6     3     8 ar  
     7     3    15 1   
     8     4    11 1   
     9     4    16 1   
    10     4    17 1   
    11     4    18 1   
    12     5     6 ar  
    13     5     7 ar  
    14     5    19 1   
    15     6    20 1   
    16     7     8 ar  
    17     7    21 1   
    18     8    25 1   
    19     9    10 2   
    20     9    11 1   
    21     9    25 1   
    22    11    12 1   
    23    12    22 1   
    24    12    23 1   
    25    12    24 1   
@<TRIPOS>SUBSTRUCTURE
     1 VTC         1 TEMP              0 ****  ****    0 ROOT
