@<TRIPOS>MOLECULE
VTD
   22    23     1     0     0
SMALL
No Charge or Current Charge


@<TRIPOS>ATOM
      1 C4         -23.1790   -11.5100     9.2260 cc         1 VTD       0.302500
      2 C8         -23.2790   -10.2390     8.4820 ca         1 VTD      -0.102500
      3 C10        -22.2850    -8.5000     7.0650 ca         1 VTD      -0.107000
      4 C11        -23.4970    -7.7930     7.0600 ca         1 VTD      -0.101000
      5 C12        -24.6000    -8.3020     7.7610 ca         1 VTD       0.116000
      6 C14        -24.4940    -9.5120     8.4660 ca         1 VTD      -0.080000
      7 C2         -22.3360   -13.3950    10.0830 cd         1 VTD      -0.141300
      8 C3         -22.0280   -12.3180     9.3140 cc         1 VTD      -0.213000
      9 C9         -22.1760    -9.7120     7.7690 ca         1 VTD      -0.098000
     10 N5         -24.1970   -12.0230     9.9000 nd         1 VTD      -0.513800
     11 N6         -23.6740   -13.2000    10.4370 na         1 VTD       0.002800
     12 Cl13       -26.1220    -7.4190     7.7580 cl         1 VTD      -0.208000
     13 H101       -21.4270    -8.1090     6.5220 ha         1 VTD       0.116000
     14 H13        -21.4120   -14.6260    11.5970 hc         1 VTD       0.052367
     15 H12        -21.9240   -15.5130    10.1490 hc         1 VTD       0.052367
     16 H11        -20.4770   -14.4930    10.0980 hc         1 VTD       0.052367
     17 H111       -23.5830    -6.8560     6.5160 ha         1 VTD       0.128000
     18 H141       -25.3660    -9.8810     9.0000 ha         1 VTD       0.144000
     19 H31        -21.0700   -12.1160     8.8510 ha         1 VTD       0.144000
     20 H91        -21.2220   -10.2320     7.7510 ha         1 VTD       0.117000
     21 H1         -24.2410   -13.8180    11.0160 hn         1 VTD       0.370000
     22 C1         -21.4930   -14.5690    10.5040 c3         1 VTD      -0.031800
@<TRIPOS>BOND
     1     1     2 1   
     2     1     8 1   
     3     1    10 2   
     4     2     6 ar  
     5     2     9 ar  
     6     3     4 ar  
     7     3     9 ar  
     8     3    13 1   
     9     4     5 ar  
    10     4    17 1   
    11     5     6 ar  
    12     5    12 1   
    13     6    18 1   
    14     7     8 2   
    15     7    11 1   
    16     7    22 1   
    17     8    19 1   
    18     9    20 1   
    19    10    11 1   
    20    11    21 1   
    21    14    22 1   
    22    15    22 1   
    23    16    22 1   
@<TRIPOS>SUBSTRUCTURE
     1 VTD         1 TEMP              0 ****  ****    0 ROOT
