@<TRIPOS>MOLECULE
VTD
   22    23     1     0     0
SMALL
abcg2


@<TRIPOS>ATOM
      1 C4         -23.0790   -11.4870     9.1900 cc         1 VTD       0.302500
      2 C8         -23.2340   -10.2210     8.4680 ca         1 VTD      -0.102500
      3 C10        -22.3020    -8.4300     7.1420 ca         1 VTD      -0.107000
      4 C11        -23.5340    -7.7940     7.0940 ca         1 VTD      -0.101000
      5 C12        -24.6070    -8.3890     7.7410 ca         1 VTD       0.116000
      6 C14        -24.4760    -9.5850     8.4220 ca         1 VTD      -0.080000
      7 C2         -22.3320   -13.3850    10.0480 cd         1 VTD      -0.141300
      8 C3         -21.9550   -12.3380     9.2370 cc         1 VTD      -0.213000
      9 C9         -22.1500    -9.6290     7.8210 ca         1 VTD      -0.098000
     10 N5         -24.0690   -11.9800     9.9170 nd         1 VTD      -0.513800
     11 N6         -23.5980   -13.1130    10.4180 na         1 VTD       0.002800
     12 CL13       -26.1590    -7.6140     7.6930 cl         1 VTD      -0.208000
     13 H101       -21.4530    -7.9820     6.6440 ha         1 VTD       0.116000
     14 H13        -21.2500   -14.4780    11.5360 hc         1 VTD       0.052367
     15 H12        -22.2210   -15.4830    10.4660 hc         1 VTD       0.052367
     16 H11        -20.7230   -14.7620     9.8800 hc         1 VTD       0.052367
     17 H111       -23.6540    -6.8590     6.5640 ha         1 VTD       0.128000
     18 H141       -25.3310   -10.0280     8.9140 ha         1 VTD       0.144000
     19 H31        -21.0020   -12.2230     8.7470 ha         1 VTD       0.144000
     20 H91        -21.1750   -10.0990     7.8510 ha         1 VTD       0.117000
     21 H1         -24.1810   -13.6670    11.0260 hn         1 VTD       0.370000
     22 C1         -21.5960   -14.5910    10.5070 c3         1 VTD      -0.031800
@<TRIPOS>BOND
     1     1     2 1   
     2     1     8 1   
     3     1    10 2   
     4     2     6 ar  
     5     2     9 ar  
     6     3     4 ar  
     7     3     9 ar  
     8     3    13 1   
     9     4     5 ar  
    10     4    17 1   
    11     5     6 ar  
    12     5    12 1   
    13     6    18 1   
    14     7     8 2   
    15     7    11 1   
    16     7    22 1   
    17     8    19 1   
    18     9    20 1   
    19    10    11 1   
    20    11    21 1   
    21    14    22 1   
    22    15    22 1   
    23    16    22 1   
@<TRIPOS>SUBSTRUCTURE
     1 VTD         1 TEMP              0 ****  ****    0 ROOT
