@<TRIPOS>MOLECULE
VTE
   52    55     1     0     0
SMALL
abcg2


@<TRIPOS>ATOM
      1 C10         27.7480    24.0700    40.4660 c5         1 VTE       0.160800
      2 C13         28.0690    27.8540    36.6790 ca         1 VTE      -0.115000
      3 C17         25.8150    24.2500    34.4160 c          1 VTE       0.616900
      4 C20         25.1510    22.0800    33.4470 ca         1 VTE      -0.129500
      5 C21         24.9720    20.7090    33.5320 ca         1 VTE       0.107600
      6 C28         28.1170    24.4480    35.5660 cc         1 VTE      -0.172200
      7 O01         32.0470    28.3150    38.0550 o          1 VTE      -0.598100
      8 C02         31.4470    27.2650    38.2450 c          1 VTE       0.616700
      9 N03         31.8560    26.3800    39.1750 ns         1 VTE      -0.510900
     10 C04         31.2480    25.1340    39.6090 c3         1 VTE       0.114000
     11 C05         29.8450    25.2770    40.2020 c3         1 VTE       0.149800
     12 N06         29.1730    24.0020    40.2080 n3         1 VTE      -0.731600
     13 C07         29.6860    23.0380    41.1650 c5         1 VTE       0.160800
     14 C08         28.6090    21.9450    41.2180 c5         1 VTE      -0.078900
     15 C09         27.3570    22.6030    40.6030 c5         1 VTE      -0.078900
     16 C11         30.2040    26.9670    37.4640 ca         1 VTE      -0.168600
     17 C12         29.2690    28.0140    37.3420 ca         1 VTE      -0.046000
     18 C14         27.8360    26.6060    36.1250 ca         1 VTE       0.085100
     19 O15         26.7270    26.2100    35.4770 os         1 VTE      -0.135200
     20 C16         26.9020    24.8950    35.1670 cd         1 VTE      -0.068100
     21 O18         25.0730    24.9220    33.7260 o          1 VTE      -0.483100
     22 C19         25.6870    22.7820    34.5240 ca         1 VTE      -0.128600
     23 C23         25.2970    20.0350    34.7140 ca         1 VTE       0.043100
     24 O24         25.0840    18.7060    34.7430 oh         1 VTE      -0.551100
     25 C25         25.8120    20.7460    35.7980 ca         1 VTE       0.107600
     26 O26         26.0750    20.0180    36.9030 oh         1 VTE      -0.540600
     27 C27         26.0140    22.1130    35.7040 ca         1 VTE      -0.129500
     28 C29         28.7540    25.5570    36.2020 ca         1 VTE      -0.141800
     29 C30         29.9660    25.7430    36.8660 ca         1 VTE      -0.013000
     30 H1          27.5190    24.6140    41.3980 h1         1 VTE       0.037700
     31 H2          27.2290    24.5820    39.6520 h1         1 VTE       0.037700
     32 H3          27.3500    28.6590    36.6080 ha         1 VTE       0.140000
     33 H4          24.8900    22.5910    32.5290 ha         1 VTE       0.139500
     34 H5          28.5150    23.4550    35.4270 ha         1 VTE       0.221000
     35 H6          32.6950    26.6580    39.6620 hn         1 VTE       0.317500
     36 H7          31.2130    24.4060    38.7980 h1         1 VTE       0.050200
     37 H8          31.9270    24.7200    40.3530 h1         1 VTE       0.050200
     38 H9          29.9100    25.7270    41.2070 h1         1 VTE       0.043200
     39 H10         29.2560    25.9620    39.5900 h1         1 VTE       0.043200
     40 H12         30.6620    22.6520    40.8610 h1         1 VTE       0.037700
     41 H13         29.8160    23.4940    42.1610 h1         1 VTE       0.037700
     42 H14         28.4380    21.6210    42.2440 hc         1 VTE       0.044950
     43 H15         28.9080    21.0630    40.6520 hc         1 VTE       0.044950
     44 H16         26.4660    22.4720    41.2160 hc         1 VTE       0.044950
     45 H17         27.1410    22.1760    39.6210 hc         1 VTE       0.044950
     46 H18         29.4870    28.9700    37.8000 ha         1 VTE       0.135000
     47 H19         24.4200    19.1030    32.6470 ho         1 VTE       0.483500
     48 H20         25.3770    18.3230    35.5800 ho         1 VTE       0.495000
     49 H21         26.4570    20.5660    37.5980 ho         1 VTE       0.483500
     50 H22         26.3880    22.6510    36.5660 ha         1 VTE       0.139500
     51 H23         30.6850    24.9370    36.9070 ha         1 VTE       0.127000
     52 O22         24.4790    20.0490    32.4680 oh         1 VTE      -0.540600
@<TRIPOS>BOND
     1     1    12 1   
     2     1    15 1   
     3     1    30 1   
     4     1    31 1   
     5     2    17 ar  
     6     2    18 ar  
     7     2    32 1   
     8     3    20 1   
     9     3    21 2   
    10     3    22 1   
    11     4     5 ar  
    12     4    22 ar  
    13     4    33 1   
    14     5    23 ar  
    15     5    52 1   
    16     6    20 2   
    17     6    28 1   
    18     6    34 1   
    19     7     8 2   
    20     8     9 1   
    21     8    16 1   
    22     9    10 1   
    23     9    35 1   
    24    10    11 1   
    25    10    36 1   
    26    10    37 1   
    27    11    12 1   
    28    11    38 1   
    29    11    39 1   
    30    12    13 1   
    31    13    14 1   
    32    13    40 1   
    33    13    41 1   
    34    14    15 1   
    35    14    42 1   
    36    14    43 1   
    37    15    44 1   
    38    15    45 1   
    39    16    17 ar  
    40    16    29 ar  
    41    17    46 1   
    42    18    19 1   
    43    18    28 ar  
    44    19    20 1   
    45    22    27 ar  
    46    23    24 1   
    47    23    25 ar  
    48    24    48 1   
    49    25    26 1   
    50    25    27 ar  
    51    26    49 1   
    52    27    50 1   
    53    28    29 ar  
    54    29    51 1   
    55    47    52 1   
@<TRIPOS>SUBSTRUCTURE
     1 VTE         1 TEMP              0 ****  ****    0 ROOT
