@<TRIPOS>MOLECULE
VTE
   52    55     1     0     0
SMALL
No Charge or Current Charge


@<TRIPOS>ATOM
      1 C10         28.0220    24.6900    41.7460 c5         1 VTE       0.160800
      2 C13         27.9380    27.7150    36.5900 ca         1 VTE      -0.115000
      3 C17         25.3270    24.1760    34.3320 c          1 VTE       0.616900
      4 C20         25.1450    22.2060    32.7550 ca         1 VTE      -0.129500
      5 C21         25.2140    20.8310    32.4830 ca         1 VTE       0.107600
      6 C28         27.6610    24.2800    35.4760 cc         1 VTE      -0.172200
      7 O01         32.0900    27.7830    37.7650 o          1 VTE      -0.598100
      8 C02         31.4020    26.7910    37.9490 c          1 VTE       0.616700
      9 N03         31.9060    25.7680    38.7250 ns         1 VTE      -0.510900
     10 C04         31.1360    24.7180    39.4190 c3         1 VTE       0.114000
     11 C05         29.9620    25.2550    40.2820 c3         1 VTE       0.149800
     12 N06         29.2050    24.2060    41.0080 n3         1 VTE      -0.731600
     13 C07         29.9540    23.4610    42.0440 c5         1 VTE       0.160800
     14 C08         28.8410    22.5760    42.6690 c5         1 VTE      -0.078900
     15 C09         27.5280    23.3840    42.4180 c5         1 VTE      -0.078900
     16 C11         30.0500    26.6490    37.2930 ca         1 VTE      -0.168600
     17 C12         29.2100    27.7940    37.1990 ca         1 VTE      -0.046000
     18 C14         27.5490    26.4780    36.0730 ca         1 VTE       0.085100
     19 O15         26.3910    26.1600    35.4340 os         1 VTE      -0.135200
     20 C16         26.4450    24.8310    35.0770 cd         1 VTE      -0.068100
     21 O18         24.3470    24.8110    33.9530 o          1 VTE      -0.483100
     22 C19         25.4230    22.6940    34.0520 ca         1 VTE      -0.128600
     23 C23         25.5500    19.9220    33.5040 ca         1 VTE       0.043100
     24 O24         25.6170    18.5770    33.2410 oh         1 VTE      -0.551100
     25 C25         25.8110    20.3960    34.8050 ca         1 VTE       0.107600
     26 O26         26.1240    19.5050    35.7980 oh         1 VTE      -0.540600
     27 C27         25.7430    21.7740    35.0780 ca         1 VTE      -0.129500
     28 C29         28.3580    25.3700    36.1290 ca         1 VTE      -0.141800
     29 C30         29.6240    25.4190    36.7240 ca         1 VTE      -0.013000
     30 H1          28.2990    25.4440    42.4980 h1         1 VTE       0.037700
     31 H2          27.2610    25.1280    41.0860 h1         1 VTE       0.037700
     32 H3          27.2870    28.5830    36.5210 ha         1 VTE       0.140000
     33 H4          24.8810    22.8970    31.9570 ha         1 VTE       0.139500
     34 H5          28.0160    23.2660    35.3020 ha         1 VTE       0.221000
     35 H6          32.8570    25.9170    39.0390 hn         1 VTE       0.317500
     36 H7          30.7610    23.9850    38.6990 h1         1 VTE       0.050200
     37 H8          31.8360    24.1870    40.0760 h1         1 VTE       0.050200
     38 H9          30.3640    25.9860    40.9970 h1         1 VTE       0.043200
     39 H10         29.2690    25.7980    39.6280 h1         1 VTE       0.043200
     40 H12         30.7710    22.8550    41.6290 h1         1 VTE       0.037700
     41 H13         30.3810    24.1440    42.7930 h1         1 VTE       0.037700
     42 H14         29.0230    22.3950    43.7350 hc         1 VTE       0.044950
     43 H15         28.7950    21.5970    42.1790 hc         1 VTE       0.044950
     44 H16         26.9730    23.5850    43.3410 hc         1 VTE       0.044950
     45 H17         26.8550    22.8330    41.7500 hc         1 VTE       0.044950
     46 H18         29.5410    28.7450    37.6120 ha         1 VTE       0.135000
     47 H19         25.0590    19.3900    31.2700 ho         1 VTE       0.483500
     48 H20         25.8590    18.1370    34.0890 ho         1 VTE       0.495000
     49 H21         26.2630    19.9970    36.6370 ho         1 VTE       0.483500
     50 H22         25.9240    22.1340    36.0900 ha         1 VTE       0.139500
     51 H23         30.2650    24.5410    36.7130 ha         1 VTE       0.127000
     52 O22         24.9540    20.3670    31.2270 oh         1 VTE      -0.540600
@<TRIPOS>BOND
     1     1    12 1   
     2     1    15 1   
     3     1    30 1   
     4     1    31 1   
     5     2    17 ar  
     6     2    18 ar  
     7     2    32 1   
     8     3    20 1   
     9     3    21 2   
    10     3    22 1   
    11     4     5 ar  
    12     4    22 ar  
    13     4    33 1   
    14     5    23 ar  
    15     5    52 1   
    16     6    20 2   
    17     6    28 1   
    18     6    34 1   
    19     7     8 2   
    20     8     9 1   
    21     8    16 1   
    22     9    10 1   
    23     9    35 1   
    24    10    11 1   
    25    10    36 1   
    26    10    37 1   
    27    11    12 1   
    28    11    38 1   
    29    11    39 1   
    30    12    13 1   
    31    13    14 1   
    32    13    40 1   
    33    13    41 1   
    34    14    15 1   
    35    14    42 1   
    36    14    43 1   
    37    15    44 1   
    38    15    45 1   
    39    16    17 ar  
    40    16    29 ar  
    41    17    46 1   
    42    18    19 1   
    43    18    28 ar  
    44    19    20 1   
    45    22    27 ar  
    46    23    24 1   
    47    23    25 ar  
    48    24    48 1   
    49    25    26 1   
    50    25    27 ar  
    51    26    49 1   
    52    27    50 1   
    53    28    29 ar  
    54    29    51 1   
    55    47    52 1   
@<TRIPOS>SUBSTRUCTURE
     1 VTE         1 TEMP              0 ****  ****    0 ROOT
