@<TRIPOS>MOLECULE
VTF
   66    69     1     0     0
SMALL
abcg2


@<TRIPOS>ATOM
      1 C5           5.3980     7.9900     5.5480 ca         1 VTF       0.183300
      2 C6           4.4570     7.0770     5.0560 ca         1 VTF      -0.259000
      3 N7           4.3710    10.9830     4.0380 nh         1 VTF      -0.770300
      4 C8           5.2870    11.9610     4.5850 c6         1 VTF       0.225300
      5 C9           4.5290    13.0050     5.3890 c6         1 VTF       0.162300
      6 C10          3.3350    11.5750     3.2200 c6         1 VTF       0.225300
      7 C11          2.5560    12.6080     4.0160 c6         1 VTF       0.162300
      8 C1           3.5030     7.6140     4.2190 ca         1 VTF       0.256000
      9 N2           3.4380     8.8880     3.8700 nb         1 VTF      -0.234000
     10 C3           4.3830     9.6800     4.3850 ca         1 VTF       0.409900
     11 N4           5.3550     9.2640     5.2130 nb         1 VTF      -0.252000
     12 N12          3.4870    13.6020     4.5520 n3         1 VTF      -0.708500
     13 S13          2.8070    15.0070     5.1210 sy         1 VTF       1.154600
     14 C14          1.9190    14.5670     6.5800 ca         1 VTF      -0.343500
     15 O15          3.9000    15.8860     5.5010 o          1 VTF      -0.534500
     16 O16          1.8480    15.4490     4.1220 o          1 VTF      -0.534500
     17 C17          0.6020    14.1330     6.4770 ca         1 VTF       0.011000
     18 C18         -0.0810    13.7660     7.6170 ca         1 VTF      -0.168500
     19 C19          0.5310    13.8290     8.8730 ca         1 VTF       0.039000
     20 C20          2.5460    14.6150     7.8170 ca         1 VTF       0.011000
     21 C21          1.8610    14.2460     8.9630 ca         1 VTF      -0.168500
     22 N22         -0.2460    13.4690     9.9680 ns         1 VTF      -0.130000
     23 C23         -0.0810    13.8440    11.2660 c          1 VTF       0.623700
     24 O24          0.9000    14.4070    11.7030 o          1 VTF      -0.546100
     25 C25         -1.2390    13.4750    12.1400 ca         1 VTF      -0.120600
     26 C26         -1.5700    12.1410    12.3420 ca         1 VTF      -0.079000
     27 C27         -2.5860    11.7980    13.2230 ca         1 VTF      -0.104000
     28 C28         -3.2850    12.7910    13.8920 ca         1 VTF      -0.083000
     29 C29         -2.9770    14.1260    13.6740 ca         1 VTF      -0.131000
     30 C30         -1.9560    14.4740    12.7990 ca         1 VTF       0.285000
     31 N31         -1.6170    15.8360    12.5720 nh         1 VTF      -0.763300
     32 C32         -1.2740    16.6540    13.7310 c3         1 VTF       0.194100
     33 S33         -2.3070    16.5860    11.2600 s6         1 VTF       1.212100
     34 C34         -3.9310    17.0950    11.7750 c3         1 VTF      -0.379100
     35 O35         -1.5260    17.7810    10.9880 o          1 VTF      -0.529000
     36 O36         -2.4500    15.5750    10.2260 o          1 VTF      -0.529000
     37 C37          6.4650     7.5430     6.4900 c3         1 VTF      -0.155400
     38 C38          2.4830     6.7600     3.6600 cg         1 VTF       0.216000
     39 N39          1.6750     6.0690     3.2220 n1         1 VTF      -0.426000
     40 H1           4.4780     6.0290     5.3140 ha         1 VTF       0.146000
     41 H2           6.0150    11.4740     5.2260 h1         1 VTF       0.077450
     42 H3           5.8240    12.4450     3.7640 h1         1 VTF       0.077450
     43 H4           5.2290    13.7730     5.7110 h1         1 VTF       0.065200
     44 H5           4.0980    12.5320     6.2810 h1         1 VTF       0.065200
     45 H6           2.6570    10.8080     2.8590 h1         1 VTF       0.077450
     46 H7           3.7980    12.0560     2.3530 h1         1 VTF       0.077450
     47 H8           1.8410    13.0910     3.3530 h1         1 VTF       0.065200
     48 H9           1.9990    12.1100     4.8210 h1         1 VTF       0.065200
     49 H10          0.0950    14.0950     5.5230 ha         1 VTF       0.133500
     50 H11         -1.1120    13.4450     7.5340 ha         1 VTF       0.135500
     51 H12          3.5720    14.9450     7.9080 ha         1 VTF       0.133500
     52 H13          2.3710    14.2910     9.9110 ha         1 VTF       0.135500
     53 H14         -1.1610    13.1110     9.7350 hn         1 VTF       0.166000
     54 H15         -1.0190    11.3640    11.8270 ha         1 VTF       0.128000
     55 H16         -2.8270    10.7560    13.3870 ha         1 VTF       0.125000
     56 H17         -4.0810    12.5300    14.5780 ha         1 VTF       0.123000
     57 H18         -3.5370    14.9000    14.1850 ha         1 VTF       0.119000
     58 H19         -0.5630    16.0980    14.3380 h1         1 VTF       0.057033
     59 H20         -0.7880    17.5700    13.4070 h1         1 VTF       0.057033
     60 H21         -2.1380    16.9090    14.3480 h1         1 VTF       0.057033
     61 H22         -3.8500    17.7780    12.6180 h1         1 VTF       0.102367
     62 H23         -4.4040    17.6020    10.9350 h1         1 VTF       0.102367
     63 H24         -4.5140    16.2200    12.0530 h1         1 VTF       0.102367
     64 H25          7.2710     8.2720     6.5450 hc         1 VTF       0.060700
     65 H26          6.0460     7.4230     7.4910 hc         1 VTF       0.060700
     66 H27          6.8720     6.5770     6.1950 hc         1 VTF       0.060700
@<TRIPOS>BOND
     1     1     2 ar  
     2     1    11 ar  
     3     1    37 1   
     4     2     8 ar  
     5     2    40 1   
     6     3     4 1   
     7     3     6 1   
     8     3    10 1   
     9     4     5 1   
    10     4    41 1   
    11     4    42 1   
    12     5    12 1   
    13     5    43 1   
    14     5    44 1   
    15     6     7 1   
    16     6    45 1   
    17     6    46 1   
    18     7    12 1   
    19     7    47 1   
    20     7    48 1   
    21     8     9 ar  
    22     8    38 1   
    23     9    10 ar  
    24    10    11 ar  
    25    12    13 1   
    26    13    14 1   
    27    13    15 2   
    28    13    16 2   
    29    14    17 ar  
    30    14    20 ar  
    31    17    18 ar  
    32    17    49 1   
    33    18    19 ar  
    34    18    50 1   
    35    19    21 ar  
    36    19    22 1   
    37    20    21 ar  
    38    20    51 1   
    39    21    52 1   
    40    22    23 1   
    41    22    53 1   
    42    23    24 2   
    43    23    25 1   
    44    25    26 ar  
    45    25    30 ar  
    46    26    27 ar  
    47    26    54 1   
    48    27    28 ar  
    49    27    55 1   
    50    28    29 ar  
    51    28    56 1   
    52    29    30 ar  
    53    29    57 1   
    54    30    31 1   
    55    31    32 1   
    56    31    33 1   
    57    32    58 1   
    58    32    59 1   
    59    32    60 1   
    60    33    34 1   
    61    33    35 2   
    62    33    36 2   
    63    34    61 1   
    64    34    62 1   
    65    34    63 1   
    66    37    64 1   
    67    37    65 1   
    68    37    66 1   
    69    38    39 3   
@<TRIPOS>SUBSTRUCTURE
     1 VTF         1 TEMP              0 ****  ****    0 ROOT
