@<TRIPOS>MOLECULE
VTF
   66    69     1     0     0
SMALL
No Charge or Current Charge


@<TRIPOS>ATOM
      1 C5           6.2470     7.8620     5.8260 ca         1 VTF       0.183300
      2 C6           5.5950     6.7620     5.2520 ca         1 VTF      -0.259000
      3 N7           4.2000    10.5950     4.7050 nh         1 VTF      -0.770300
      4 C8           5.0310    11.7930     5.0860 c6         1 VTF       0.225300
      5 C9           4.1790    13.0720     5.3420 c6         1 VTF       0.162300
      6 C10          3.1600    10.9110     3.6610 c6         1 VTF       0.225300
      7 C11          2.3690    12.2200     3.9630 c6         1 VTF       0.162300
      8 C1           4.4480     7.0170     4.4800 ca         1 VTF       0.256000
      9 N2           3.9920     8.2720     4.2990 nb         1 VTF      -0.234000
     10 C3           4.6820     9.2700     4.8900 ca         1 VTF       0.409900
     11 N4           5.7890     9.1150     5.6470 nb         1 VTF      -0.252000
     12 N12          3.2570    13.3900     4.2140 n3         1 VTF      -0.708500
     13 S13          2.4530    14.8890     4.3450 sy         1 VTF       1.154600
     14 C14          1.4410    14.6790     5.8190 ca         1 VTF      -0.343500
     15 O15          3.4960    15.8900     4.5980 o          1 VTF      -0.534500
     16 O16          1.5890    14.9910     3.1630 o          1 VTF      -0.534500
     17 C17          0.1320    14.1720     5.7120 ca         1 VTF       0.011000
     18 C18         -0.6520    14.0070     6.8670 ca         1 VTF      -0.168500
     19 C19         -0.1470    14.3400     8.1370 ca         1 VTF       0.039000
     20 C20          1.9500    15.0330     7.0840 ca         1 VTF       0.011000
     21 C21          1.1600    14.8640     8.2340 ca         1 VTF      -0.168500
     22 N22         -1.0000    14.1510     9.2570 ns         1 VTF      -0.130000
     23 C23         -0.7620    14.1740    10.6250 c          1 VTF       0.623700
     24 O24          0.3600    14.3020    11.1050 o          1 VTF      -0.546100
     25 C25         -1.9880    13.9140    11.4730 ca         1 VTF      -0.120600
     26 C26         -2.9850    13.0180    11.0090 ca         1 VTF      -0.079000
     27 C27         -4.1110    12.7250    11.7940 ca         1 VTF      -0.104000
     28 C28         -4.2610    13.3190    13.0530 ca         1 VTF      -0.083000
     29 C29         -3.2880    14.2150    13.5190 ca         1 VTF      -0.131000
     30 C30         -2.1590    14.5310    12.7390 ca         1 VTF       0.285000
     31 N31         -1.2590    15.4830    13.2410 nh         1 VTF      -0.763300
     32 C32         -0.4930    15.2160    14.4710 c3         1 VTF       0.194100
     33 S33         -1.4310    17.1300    12.7520 s6         1 VTF       1.212100
     34 C34         -3.0110    17.6190    13.4180 c3         1 VTF      -0.379100
     35 O35         -0.3810    17.8990    13.4270 o          1 VTF      -0.529000
     36 O36         -1.5250    17.1320    11.2900 o          1 VTF      -0.529000
     37 C37          7.4880     7.6950     6.6810 c3         1 VTF      -0.155400
     38 C38          3.7140     5.9490     3.8510 cg         1 VTF       0.216000
     39 N39          3.1250     5.0760     3.3450 n1         1 VTF      -0.426000
     40 H1           5.9610     5.7490     5.3990 ha         1 VTF       0.146000
     41 H2           5.6100    11.6040     6.0020 h1         1 VTF       0.077450
     42 H3           5.7550    12.0110     4.2870 h1         1 VTF       0.077450
     43 H4           4.8720    13.9050     5.5270 h1         1 VTF       0.065200
     44 H5           3.6080    12.9200     6.2700 h1         1 VTF       0.065200
     45 H6           2.4210    10.1020     3.5720 h1         1 VTF       0.077450
     46 H7           3.6420    11.0160     2.6780 h1         1 VTF       0.077450
     47 H8           1.7010    12.4110     3.1110 h1         1 VTF       0.065200
     48 H9           1.7260    12.0340     4.8360 h1         1 VTF       0.065200
     49 H10         -0.2830    13.9030     4.7420 ha         1 VTF       0.133500
     50 H11         -1.6610    13.6110     6.7690 ha         1 VTF       0.135500
     51 H12          2.9550    15.4390     7.1820 ha         1 VTF       0.133500
     52 H13          1.5800    15.1600     9.1890 ha         1 VTF       0.135500
     53 H14         -1.9680    13.9940     9.0090 hn         1 VTF       0.166000
     54 H15         -2.8820    12.5150    10.0490 ha         1 VTF       0.128000
     55 H16         -4.8630    12.0280    11.4290 ha         1 VTF       0.125000
     56 H17         -5.1310    13.0900    13.6660 ha         1 VTF       0.123000
     57 H18         -3.4180    14.6830    14.4910 ha         1 VTF       0.119000
     58 H19         -0.5110    14.1450    14.7120 h1         1 VTF       0.057033
     59 H20          0.5570    15.5090    14.3430 h1         1 VTF       0.057033
     60 H21         -0.9150    15.7670    15.3230 h1         1 VTF       0.057033
     61 H22         -2.9720    17.4700    14.5010 h1         1 VTF       0.102367
     62 H23         -3.1600    18.6740    13.1660 h1         1 VTF       0.102367
     63 H24         -3.7760    16.9900    12.9530 h1         1 VTF       0.102367
     64 H25          8.1900     8.5240     6.5330 hc         1 VTF       0.060700
     65 H26          7.2250     7.6610     7.7450 hc         1 VTF       0.060700
     66 H27          8.0180     6.7670     6.4360 hc         1 VTF       0.060700
@<TRIPOS>BOND
     1     1     2 ar  
     2     1    11 ar  
     3     1    37 1   
     4     2     8 ar  
     5     2    40 1   
     6     3     4 1   
     7     3     6 1   
     8     3    10 1   
     9     4     5 1   
    10     4    41 1   
    11     4    42 1   
    12     5    12 1   
    13     5    43 1   
    14     5    44 1   
    15     6     7 1   
    16     6    45 1   
    17     6    46 1   
    18     7    12 1   
    19     7    47 1   
    20     7    48 1   
    21     8     9 ar  
    22     8    38 1   
    23     9    10 ar  
    24    10    11 ar  
    25    12    13 1   
    26    13    14 1   
    27    13    15 2   
    28    13    16 2   
    29    14    17 ar  
    30    14    20 ar  
    31    17    18 ar  
    32    17    49 1   
    33    18    19 ar  
    34    18    50 1   
    35    19    21 ar  
    36    19    22 1   
    37    20    21 ar  
    38    20    51 1   
    39    21    52 1   
    40    22    23 1   
    41    22    53 1   
    42    23    24 2   
    43    23    25 1   
    44    25    26 ar  
    45    25    30 ar  
    46    26    27 ar  
    47    26    54 1   
    48    27    28 ar  
    49    27    55 1   
    50    28    29 ar  
    51    28    56 1   
    52    29    30 ar  
    53    29    57 1   
    54    30    31 1   
    55    31    32 1   
    56    31    33 1   
    57    32    58 1   
    58    32    59 1   
    59    32    60 1   
    60    33    34 1   
    61    33    35 2   
    62    33    36 2   
    63    34    61 1   
    64    34    62 1   
    65    34    63 1   
    66    37    64 1   
    67    37    65 1   
    68    37    66 1   
    69    38    39 3   
@<TRIPOS>SUBSTRUCTURE
     1 VTF         1 TEMP              0 ****  ****    0 ROOT
