@<TRIPOS>MOLECULE
VTG
   19    19     1     0     0
SMALL
bcc


@<TRIPOS>ATOM
      1 C1          19.7670     0.7490    11.4040 ca         1 VTG      -0.093300
      2 C2          19.2870     2.0370    11.1750 ca         1 VTG      -0.105000
      3 C3          19.2590     2.9760    12.1940 ca         1 VTG      -0.133500
      4 C4          19.7110     2.6630    13.4760 ca         1 VTG      -0.068300
      5 O1          20.7140     0.1860     9.3060 oh         1 VTG      -0.591800
      6 C7          19.8040    -0.2590    10.2920 c3         1 VTG       0.186700
      7 C8          19.6530     3.6730    14.5850 c3         1 VTG      -0.047800
      8 C5          20.1970     1.3790    13.7000 ca         1 VTG      -0.133500
      9 C6          20.2260     0.4370    12.6780 ca         1 VTG      -0.105000
     10 H1          18.9270     2.3120    10.1910 ha         1 VTG       0.130500
     11 H2          18.8810     3.9710    11.9880 ha         1 VTG       0.128500
     12 H3          20.6070    -0.3750     8.5320 ho         1 VTG       0.400000
     13 H4          18.7970    -0.3740     9.8730 h1         1 VTG       0.023200
     14 H5          20.0920    -1.2370    10.6970 h1         1 VTG       0.023200
     15 H6          18.7190     3.5860    15.1460 hc         1 VTG       0.042033
     16 H7          20.4680     3.5340    15.2950 hc         1 VTG       0.042033
     17 H8          19.7060     4.6920    14.2040 hc         1 VTG       0.042033
     18 H9          20.5640     1.1070    14.6830 ha         1 VTG       0.128500
     19 H10         20.6140    -0.5550    12.8800 ha         1 VTG       0.130500
@<TRIPOS>BOND
     1     1     2 ar  
     2     1     6 1   
     3     1     9 ar  
     4     2     3 ar  
     5     2    10 1   
     6     3     4 ar  
     7     3    11 1   
     8     4     7 1   
     9     4     8 ar  
    10     5     6 1   
    11     5    12 1   
    12     6    13 1   
    13     6    14 1   
    14     7    15 1   
    15     7    16 1   
    16     7    17 1   
    17     8     9 ar  
    18     8    18 1   
    19     9    19 1   
@<TRIPOS>SUBSTRUCTURE
     1 VTG         1 TEMP              0 ****  ****    0 ROOT
