@<TRIPOS>MOLECULE
VTG
   19    19     1     0     0
SMALL
No Charge or Current Charge


@<TRIPOS>ATOM
      1 C1          19.7370     0.7970    11.3650 ca         1 VTG      -0.093300
      2 C2          19.1630     2.0700    11.1800 ca         1 VTG      -0.087000
      3 C3          19.1430     3.0000    12.2350 ca         1 VTG      -0.115500
      4 C4          19.6980     2.6690    13.4850 ca         1 VTG      -0.068300
      5 O1          20.9480    -0.0690     9.4490 oh         1 VTG      -0.654000
      6 C7          19.7530    -0.2130    10.2250 c3         1 VTG       0.209900
      7 C8          19.6730     3.6750    14.6260 c3         1 VTG      -0.047800
      8 C5          20.2700     1.3970    13.6710 ca         1 VTG      -0.115500
      9 C6          20.2900     0.4660    12.6180 ca         1 VTG      -0.087000
     10 H1          18.7320     2.3390    10.2180 ha         1 VTG       0.112500
     11 H2          18.6950     3.9790    12.0780 ha         1 VTG       0.110500
     12 H3          20.9020    -0.7420     8.7350 ho         1 VTG       0.439000
     13 H4          18.8680    -0.0610     9.5930 h1         1 VTG       0.023200
     14 H5          19.6890    -1.2290    10.6390 h1         1 VTG       0.023200
     15 H6          18.7580     3.5670    15.2210 hc         1 VTG       0.042033
     16 H7          20.5280     3.5380    15.2990 hc         1 VTG       0.042033
     17 H8          19.7100     4.7050    14.2530 hc         1 VTG       0.042033
     18 H9          20.6990     1.1270    14.6340 ha         1 VTG       0.110500
     19 H10         20.7370    -0.5130    12.7740 ha         1 VTG       0.112500
@<TRIPOS>BOND
     1     1     2 ar  
     2     1     6 1   
     3     1     9 ar  
     4     2     3 ar  
     5     2    10 1   
     6     3     4 ar  
     7     3    11 1   
     8     4     7 1   
     9     4     8 ar  
    10     5     6 1   
    11     5    12 1   
    12     6    13 1   
    13     6    14 1   
    14     7    15 1   
    15     7    16 1   
    16     7    17 1   
    17     8     9 ar  
    18     8    18 1   
    19     9    19 1   
@<TRIPOS>SUBSTRUCTURE
     1 VTG         1 TEMP              0 ****  ****    0 ROOT
