@<TRIPOS>MOLECULE
VTH
   19    19     1     0     0
SMALL
No Charge or Current Charge


@<TRIPOS>ATOM
      1 N1           1.3730    12.8130   -36.2440 n1         1 VTH      -0.412000
      2 C7           0.3860    13.1660   -35.7290 cg         1 VTH       0.325000
      3 O1          -2.5630    10.5120   -34.7630 o          1 VTH      -0.377000
      4 C1          -3.2360    14.6110   -33.9810 ca         1 VTH       0.162100
      5 C5          -1.7900    12.7140   -34.5590 ca         1 VTH      -0.094200
      6 C6          -2.9880    13.2300   -34.0090 ca         1 VTH      -0.099000
      7 C4          -0.8340    13.6140   -35.1050 ca         1 VTH       0.006000
      8 C3          -1.0920    15.0000   -35.0740 ca         1 VTH      -0.043000
      9 C2          -2.2810    15.4990   -34.5150 ca         1 VTH      -0.173000
     10 N           -1.5780    11.2320   -34.5530 no         1 VTH       0.672200
     11 O2          -0.4840    10.7990   -34.1670 o          1 VTH      -0.377000
     12 C           -4.7750    16.4350   -33.3450 c3         1 VTH       0.146900
     13 H1          -3.7330    12.5580   -33.5880 ha         1 VTH       0.170000
     14 H2          -0.3680    15.6980   -35.4930 ha         1 VTH       0.137000
     15 H3          -2.4430    16.5730   -34.5110 ha         1 VTH       0.133000
     16 H4          -5.7560    16.5530   -32.8680 h1         1 VTH       0.052033
     17 H5          -4.0390    16.9910   -32.7510 h1         1 VTH       0.052033
     18 H6          -4.8300    16.8810   -34.3460 h1         1 VTH       0.052033
     19 O           -4.4230    15.0410   -33.4230 os         1 VTH      -0.334100
@<TRIPOS>BOND
     1     1     2 3   
     2     2     7 1   
     3     3    10 1   
     4     4     6 ar  
     5     4     9 ar  
     6     4    19 1   
     7     5     6 ar  
     8     5     7 ar  
     9     5    10 1   
    10     6    13 1   
    11     7     8 ar  
    12     8     9 ar  
    13     8    14 1   
    14     9    15 1   
    15    10    11 1   
    16    12    16 1   
    17    12    17 1   
    18    12    18 1   
    19    12    19 1   
@<TRIPOS>SUBSTRUCTURE
     1 VTH         1 TEMP              0 ****  ****    0 ROOT
