@<TRIPOS>MOLECULE
VTH
   19    19     1     0     0
SMALL
abcg2


@<TRIPOS>ATOM
      1 N1           1.3870    12.9390   -36.1520 n1         1 VTH      -0.412000
      2 C7           0.3770    13.1730   -35.6460 cg         1 VTH       0.325000
      3 O1          -2.6160    10.5870   -34.3270 o          1 VTH      -0.377000
      4 C1          -3.2480    14.6160   -33.9950 ca         1 VTH       0.162100
      5 C5          -1.8350    12.7520   -34.5370 ca         1 VTH      -0.094200
      6 C6          -3.0140    13.2360   -34.0170 ca         1 VTH      -0.099000
      7 C4          -0.8470    13.6030   -35.0610 ca         1 VTH       0.006000
      8 C3          -1.1090    14.9760   -35.0390 ca         1 VTH      -0.043000
      9 C2          -2.2840    15.4850   -34.5120 ca         1 VTH      -0.173000
     10 N           -1.6390    11.2950   -34.5170 no         1 VTH       0.672200
     11 O2          -0.5060    10.8700   -34.6870 o          1 VTH      -0.377000
     12 C           -4.7160    16.4010   -33.3930 c3         1 VTH       0.146900
     13 H1          -3.7540    12.5590   -33.6190 ha         1 VTH       0.170000
     14 H2          -0.3710    15.6530   -35.4480 ha         1 VTH       0.137000
     15 H3          -2.4400    16.5530   -34.5120 ha         1 VTH       0.133000
     16 H4          -5.6940    16.4650   -32.9240 h1         1 VTH       0.052033
     17 H5          -3.9760    16.9230   -32.7840 h1         1 VTH       0.052033
     18 H6          -4.7530    16.8350   -34.3930 h1         1 VTH       0.052033
     19 O           -4.4150    14.9990   -33.4610 os         1 VTH      -0.334100
@<TRIPOS>BOND
     1     1     2 3   
     2     2     7 1   
     3     3    10 1   
     4     4     6 ar  
     5     4     9 ar  
     6     4    19 1   
     7     5     6 ar  
     8     5     7 ar  
     9     5    10 1   
    10     6    13 1   
    11     7     8 ar  
    12     8     9 ar  
    13     8    14 1   
    14     9    15 1   
    15    10    11 1   
    16    12    16 1   
    17    12    17 1   
    18    12    18 1   
    19    12    19 1   
@<TRIPOS>SUBSTRUCTURE
     1 VTH         1 TEMP              0 ****  ****    0 ROOT
