@<TRIPOS>MOLECULE
VTI
   48    50     1     0     0
SMALL
No Charge or Current Charge


@<TRIPOS>ATOM
      1 CAA         -6.9800     1.0570    -1.9630 c3         1 VTI      -0.176100
      2 CAT         -6.0180     1.0890    -0.7800 c          1 VTI       0.611100
      3 OAC         -6.1820     1.8460     0.1700 o          1 VTI      -0.575100
      4 NAS         -4.9770     0.1800    -0.8580 ns         1 VTI      -0.169000
      5 CAZ         -3.8860    -0.0270     0.0270 ca         1 VTI      -0.034000
      6 CAY         -3.6610    -1.3190     0.5470 ca         1 VTI       0.127000
      7 CAN         -2.5940    -1.5600     1.4280 ca         1 VTI      -0.088500
      8 ClF         -4.7250    -2.6580     0.1160 cl         1 VTI      -0.187500
      9 CAX         -2.9960     1.0160     0.3790 ca         1 VTI       0.127000
     10 ClE         -3.1320     2.6300    -0.3240 cl         1 VTI      -0.187500
     11 CAM         -1.9280     0.7680     1.2580 ca         1 VTI      -0.088500
     12 CAW         -1.7230    -0.5170     1.7950 ca         1 VTI      -0.070300
     13 CAO         -0.5550    -0.7810     2.7390 c3         1 VTI       0.295100
     14 NAQ          0.6820    -0.9850     1.9720 nu         1 VTI      -0.930400
     15 CAU          0.9340    -2.0960     1.2490 c2         1 VTI       0.701800
     16 NAB          0.5490    -3.2280     1.6500 n2         1 VTI      -0.887100
     17 NAR          1.8740    -1.9150     0.2660 ns         1 VTI      -0.490400
     18 C            2.1990    -0.7760    -0.4380 c          1 VTI       0.587100
     19 O            1.6590     0.3050    -0.2330 o          1 VTI      -0.555100
     20 CA           3.2910    -0.9700    -1.5020 c3         1 VTI      -0.005400
     21 N            4.1920     0.1880    -1.6490 na         1 VTI      -0.085700
     22 CBB          5.1660     0.5510    -0.7270 ca         1 VTI      -0.038200
     23 CAJ          5.4920    -0.0570     0.4970 ca         1 VTI      -0.128000
     24 CAH          6.5330     0.5080     1.2660 ca         1 VTI      -0.089000
     25 CAG          7.2210     1.6550     0.8050 ca         1 VTI      -0.139000
     26 CAI          6.8750     2.2470    -0.4290 ca         1 VTI      -0.058000
     27 CBA          5.8370     1.6600    -1.1650 ca         1 VTI      -0.091800
     28 CAK          5.2740     2.0310    -2.4290 cc         1 VTI      -0.225200
     29 CAL          4.2660     1.1170    -2.7130 cd         1 VTI      -0.152100
     30 H1          -7.8010     1.7760    -1.8600 hc         1 VTI       0.062367
     31 H2          -6.4130     1.2180    -2.8870 hc         1 VTI       0.062367
     32 H3          -7.3510     0.0340    -2.0940 hc         1 VTI       0.062367
     33 H4          -5.0040    -0.4400    -1.6580 hn         1 VTI       0.164000
     34 H5          -2.4400    -2.5620     1.8200 ha         1 VTI       0.134000
     35 H6          -1.2480     1.5780     1.5120 ha         1 VTI       0.134000
     36 H7          -0.4400     0.0820     3.4090 h1         1 VTI       0.063700
     37 H8          -0.7730    -1.6510     3.3740 h1         1 VTI       0.063700
     38 H9           1.0080    -0.1590     1.4700 hn         1 VTI       0.535000
     39 H10          0.9340    -3.9470     1.0260 hn         1 VTI       0.386400
     40 H11          2.3690    -2.7480    -0.0120 hn         1 VTI       0.319500
     41 H12          3.8930    -1.8480    -1.2380 h1         1 VTI       0.077200
     42 H13          2.7960    -1.1750    -2.4580 h1         1 VTI       0.077200
     43 H14          4.9630    -0.9380     0.8510 ha         1 VTI       0.108000
     44 H15          6.8070     0.0590     2.2180 ha         1 VTI       0.110000
     45 H16          8.0220     2.0840     1.4030 ha         1 VTI       0.111000
     46 H17          7.3950     3.1280    -0.7950 ha         1 VTI       0.115000
     47 H18          5.5680     2.8670    -3.0610 ha         1 VTI       0.208000
     48 H19          3.6070     1.0590    -3.5750 h4         1 VTI       0.211000
@<TRIPOS>BOND
     1     1     2 1   
     2     1    30 1   
     3     1    31 1   
     4     1    32 1   
     5     2     3 2   
     6     2     4 1   
     7     4     5 1   
     8     4    33 1   
     9     5     6 ar  
    10     5     9 ar  
    11     6     7 ar  
    12     6     8 1   
    13     7    12 ar  
    14     7    34 1   
    15     9    10 1   
    16     9    11 ar  
    17    11    12 ar  
    18    11    35 1   
    19    12    13 1   
    20    13    14 1   
    21    13    36 1   
    22    13    37 1   
    23    14    15 1   
    24    14    38 1   
    25    15    16 2   
    26    15    17 1   
    27    16    39 1   
    28    17    18 1   
    29    17    40 1   
    30    18    19 2   
    31    18    20 1   
    32    20    21 1   
    33    20    41 1   
    34    20    42 1   
    35    21    22 1   
    36    21    29 1   
    37    22    23 ar  
    38    22    27 ar  
    39    23    24 ar  
    40    23    43 1   
    41    24    25 ar  
    42    24    44 1   
    43    25    26 ar  
    44    25    45 1   
    45    26    27 ar  
    46    26    46 1   
    47    27    28 1   
    48    28    29 2   
    49    28    47 1   
    50    29    48 1   
@<TRIPOS>SUBSTRUCTURE
     1 VTI         1 TEMP              0 ****  ****    0 ROOT
