@<TRIPOS>MOLECULE
VTI
   48    50     1     0     0
SMALL
abcg2


@<TRIPOS>ATOM
      1 CAA         -7.7980     0.6540    -1.4660 c3         1 VTI      -0.176100
      2 CAT         -6.4950     0.8070    -0.7300 c          1 VTI       0.611100
      3 OAC         -6.0640     1.8840    -0.3610 o          1 VTI      -0.575100
      4 NAS         -5.8130    -0.3500    -0.5300 ns         1 VTI      -0.169000
      5 CAZ         -4.5690    -0.3860     0.1130 ca         1 VTI      -0.034000
      6 CAY         -4.4340    -0.9070     1.3980 ca         1 VTI       0.127000
      7 CAN         -3.2070    -0.9820     2.0320 ca         1 VTI      -0.088500
      8 CLF         -5.8420    -1.4900     2.2110 cl         1 VTI      -0.187500
      9 CAX         -3.4100     0.0770    -0.5060 ca         1 VTI       0.127000
     10 CLE         -3.5060     0.6940    -2.1140 cl         1 VTI      -0.187500
     11 CAM         -2.1780     0.0320     0.1220 ca         1 VTI      -0.088500
     12 CAW         -2.0680    -0.5050     1.3970 ca         1 VTI      -0.070300
     13 CAO         -0.7430    -0.5470     2.1230 c3         1 VTI       0.295100
     14 NAQ          0.4020    -0.5100     1.2640 nu         1 VTI      -0.930400
     15 CAU          0.7510    -1.5910     0.5330 c2         1 VTI       0.701800
     16 NAB          0.0710    -2.6690     0.5690 n2         1 VTI      -0.887100
     17 NAR          1.8980    -1.4500    -0.2700 ns         1 VTI      -0.490400
     18 C            2.7410    -0.3920    -0.3970 c          1 VTI       0.587100
     19 O            2.6490     0.6530     0.2130 o          1 VTI      -0.555100
     20 CA           3.8430    -0.6330    -1.4220 c3         1 VTI      -0.005400
     21 N            4.8220     0.4050    -1.4070 na         1 VTI      -0.085700
     22 CBB          5.8460     0.5160    -0.5050 ca         1 VTI      -0.038200
     23 CAJ          6.2580    -0.3590     0.4980 ca         1 VTI      -0.128000
     24 CAH          7.3530     0.0110     1.2560 ca         1 VTI      -0.089000
     25 CAG          8.0230     1.2240     1.0260 ca         1 VTI      -0.139000
     26 CAI          7.6100     2.0890     0.0310 ca         1 VTI      -0.058000
     27 CBA          6.5030     1.7410    -0.7520 ca         1 VTI      -0.091800
     28 CAK          5.8100     2.3700    -1.8330 cc         1 VTI      -0.225200
     29 CAL          4.7960     1.5320    -2.1880 cd         1 VTI      -0.152100
     30 H1          -8.5640     1.2650    -0.9920 hc         1 VTI       0.062367
     31 H2          -7.6700     1.0200    -2.4860 hc         1 VTI       0.062367
     32 H3          -8.1480    -0.3750    -1.5190 hc         1 VTI       0.062367
     33 H4          -6.2470    -1.2270    -0.7720 hn         1 VTI       0.164000
     34 H5          -3.1400    -1.4090     3.0250 ha         1 VTI       0.134000
     35 H6          -1.3000     0.4020    -0.3910 ha         1 VTI       0.134000
     36 H7          -0.6800     0.3190     2.7830 h1         1 VTI       0.063700
     37 H8          -0.7170    -1.4330     2.7610 h1         1 VTI       0.063700
     38 H9           0.9800     0.3140     1.2340 hn         1 VTI       0.535000
     39 H10          0.4650    -3.3860    -0.0270 hn         1 VTI       0.386400
     40 H11          2.1040    -2.2580    -0.8400 hn         1 VTI       0.319500
     41 H12          4.3150    -1.6020    -1.2460 h1         1 VTI       0.077200
     42 H13          3.3890    -0.6900    -2.4130 h1         1 VTI       0.077200
     43 H14          5.7510    -1.2980     0.6850 ha         1 VTI       0.108000
     44 H15          7.7010    -0.6460     2.0420 ha         1 VTI       0.110000
     45 H16          8.8770     1.4800     1.6390 ha         1 VTI       0.111000
     46 H17          8.1320     3.0220    -0.1390 ha         1 VTI       0.115000
     47 H18          6.0380     3.3200    -2.2900 ha         1 VTI       0.208000
     48 H19          4.0480     1.6410    -2.9570 h4         1 VTI       0.211000
@<TRIPOS>BOND
     1     1     2 1   
     2     1    30 1   
     3     1    31 1   
     4     1    32 1   
     5     2     3 2   
     6     2     4 1   
     7     4     5 1   
     8     4    33 1   
     9     5     6 ar  
    10     5     9 ar  
    11     6     7 ar  
    12     6     8 1   
    13     7    12 ar  
    14     7    34 1   
    15     9    10 1   
    16     9    11 ar  
    17    11    12 ar  
    18    11    35 1   
    19    12    13 1   
    20    13    14 1   
    21    13    36 1   
    22    13    37 1   
    23    14    15 1   
    24    14    38 1   
    25    15    16 2   
    26    15    17 1   
    27    16    39 1   
    28    17    18 1   
    29    17    40 1   
    30    18    19 2   
    31    18    20 1   
    32    20    21 1   
    33    20    41 1   
    34    20    42 1   
    35    21    22 1   
    36    21    29 1   
    37    22    23 ar  
    38    22    27 ar  
    39    23    24 ar  
    40    23    43 1   
    41    24    25 ar  
    42    24    44 1   
    43    25    26 ar  
    44    25    45 1   
    45    26    27 ar  
    46    26    46 1   
    47    27    28 1   
    48    28    29 2   
    49    28    47 1   
    50    29    48 1   
@<TRIPOS>SUBSTRUCTURE
     1 VTI         1 TEMP              0 ****  ****    0 ROOT
