@<TRIPOS>MOLECULE
VTK
   55    57     1     0     0
SMALL
abcg2


@<TRIPOS>ATOM
      1 C7           4.8440    10.4740     4.6590 c6         1 VTK      -0.074400
      2 C8           5.6950    11.6240     5.1810 c6         1 VTK      -0.073900
      3 C9           4.8230    12.7670     5.6790 c6         1 VTK       0.189300
      4 C10          3.8780    10.9810     3.5980 c6         1 VTK      -0.073900
      5 C11          3.0390    12.1360     4.1280 c6         1 VTK       0.189300
      6 N12          3.9210    13.2050     4.6080 n3         1 VTK      -0.707500
      7 S13          3.2250    14.6950     4.8080 sy         1 VTK       1.154600
      8 C14          2.1450    14.5580     6.1980 ca         1 VTK      -0.344500
      9 O15          4.2880    15.6230     5.1590 o          1 VTK      -0.537500
     10 O16          2.4210    14.9540     3.6250 o          1 VTK      -0.537500
     11 C17          0.8190    14.1780     6.0210 ca         1 VTK       0.014000
     12 C18          0.0060    14.0150     7.1230 ca         1 VTK      -0.177500
     13 C19          0.4960    14.2230     8.4180 ca         1 VTK       0.045000
     14 C20          2.6400    14.7760     7.4760 ca         1 VTK       0.014000
     15 C21          1.8280    14.6110     8.5850 ca         1 VTK      -0.177500
     16 N22         -0.3980    14.0230     9.4630 ns         1 VTK      -0.132000
     17 C23         -0.1920    14.1450    10.8030 c          1 VTK       0.634700
     18 O24          0.8530    14.4980    11.3090 o          1 VTK      -0.549100
     19 C25         -1.3710    13.7340    11.6310 ca         1 VTK      -0.117600
     20 C26         -1.9440    12.4810    11.4340 ca         1 VTK      -0.085000
     21 C27         -2.9570    12.0260    12.2660 ca         1 VTK      -0.105000
     22 C28         -3.4130    12.8300    13.2990 ca         1 VTK      -0.082000
     23 C29         -2.8640    14.0900    13.4890 ca         1 VTK      -0.135000
     24 C30         -1.8460    14.5480    12.6610 ca         1 VTK       0.283000
     25 N31         -1.2900    15.8400    12.8640 nh         1 VTK      -0.755300
     26 C32         -0.8120    16.1710    14.2040 c3         1 VTK       0.195100
     27 S33         -1.8990    17.0640    11.9210 s6         1 VTK       1.211100
     28 C34         -3.5400    17.3960    12.5220 c3         1 VTK      -0.380100
     29 O35         -1.0830    18.2400    12.1670 o          1 VTK      -0.526500
     30 O36         -2.0120    16.5360    10.5710 o          1 VTK      -0.526500
     31 H1           4.2760    10.0360     5.4860 hc         1 VTK       0.041700
     32 H2           5.4760     9.6820     4.2540 hc         1 VTK       0.041700
     33 H3           6.3310    11.2950     6.0050 hc         1 VTK       0.052200
     34 H4           6.3530    11.9920     4.3900 hc         1 VTK       0.052200
     35 H5           5.4500    13.6010     5.9900 h1         1 VTK       0.052700
     36 H6           4.2470    12.4360     6.5540 h1         1 VTK       0.052700
     37 H7           3.2030    10.1870     3.2740 hc         1 VTK       0.052200
     38 H8           4.4300    11.3140     2.7150 hc         1 VTK       0.052200
     39 H9           2.4000    12.5200     3.3370 h1         1 VTK       0.052700
     40 H10          2.3940    11.7770     4.9420 h1         1 VTK       0.052700
     41 H11          0.4110    14.0150     5.0320 ha         1 VTK       0.133000
     42 H12         -1.0280    13.7240     6.9790 ha         1 VTK       0.134000
     43 H13          3.6660    15.0850     7.6280 ha         1 VTK       0.133000
     44 H14          2.2380    14.7940     9.5630 ha         1 VTK       0.134000
     45 H15         -1.3400    13.7940     9.1790 hn         1 VTK       0.163000
     46 H16         -1.5790    11.8390    10.6420 ha         1 VTK       0.125000
     47 H17         -3.3830    11.0440    12.1090 ha         1 VTK       0.125000
     48 H18         -4.2030    12.4850    13.9530 ha         1 VTK       0.124000
     49 H19         -3.2350    14.7230    14.2850 ha         1 VTK       0.121000
     50 H20         -0.2530    15.3160    14.5750 h1         1 VTK       0.056700
     51 H21         -0.1330    17.0180    14.1560 h1         1 VTK       0.056700
     52 H22         -1.6140    16.3950    14.9100 h1         1 VTK       0.056700
     53 H23         -3.4900    17.6850    13.5700 h1         1 VTK       0.101700
     54 H24         -3.9470    18.2170    11.9330 h1         1 VTK       0.101700
     55 H25         -4.1620    16.5130    12.4020 h1         1 VTK       0.101700
@<TRIPOS>BOND
     1     1     2 1   
     2     1     4 1   
     3     1    31 1   
     4     1    32 1   
     5     2     3 1   
     6     2    33 1   
     7     2    34 1   
     8     3     6 1   
     9     3    35 1   
    10     3    36 1   
    11     4     5 1   
    12     4    37 1   
    13     4    38 1   
    14     5     6 1   
    15     5    39 1   
    16     5    40 1   
    17     6     7 1   
    18     7     8 1   
    19     7     9 2   
    20     7    10 2   
    21     8    11 ar  
    22     8    14 ar  
    23    11    12 ar  
    24    11    41 1   
    25    12    13 ar  
    26    12    42 1   
    27    13    15 ar  
    28    13    16 1   
    29    14    15 ar  
    30    14    43 1   
    31    15    44 1   
    32    16    17 1   
    33    16    45 1   
    34    17    18 2   
    35    17    19 1   
    36    19    20 ar  
    37    19    24 ar  
    38    20    21 ar  
    39    20    46 1   
    40    21    22 ar  
    41    21    47 1   
    42    22    23 ar  
    43    22    48 1   
    44    23    24 ar  
    45    23    49 1   
    46    24    25 1   
    47    25    26 1   
    48    25    27 1   
    49    26    50 1   
    50    26    51 1   
    51    26    52 1   
    52    27    28 1   
    53    27    29 2   
    54    27    30 2   
    55    28    53 1   
    56    28    54 1   
    57    28    55 1   
@<TRIPOS>SUBSTRUCTURE
     1 VTK         1 TEMP              0 ****  ****    0 ROOT
