@<TRIPOS>MOLECULE
VTK
   55    57     1     0     0
SMALL
No Charge or Current Charge


@<TRIPOS>ATOM
      1 C7           5.1820    10.6830     5.2610 c6         1 VTK      -0.074400
      2 C8           5.8830    12.0480     5.4380 c6         1 VTK      -0.073900
      3 C9           4.8490    13.1910     5.5710 c6         1 VTK       0.189300
      4 C10          4.1850    10.7530     4.0830 c6         1 VTK      -0.073900
      5 C11          3.2010    11.9350     4.2570 c6         1 VTK       0.189300
      6 N12          3.9200    13.2280     4.4090 n3         1 VTK      -0.707500
      7 S13          2.9150    14.6070     4.3510 sy         1 VTK       1.154600
      8 C14          1.8870    14.4200     5.8170 ca         1 VTK      -0.344500
      9 O15          3.8000    15.7670     4.5130 o          1 VTK      -0.537500
     10 O16          2.0900    14.4630     3.1460 o          1 VTK      -0.537500
     11 C17          0.6630    13.7300     5.7380 ca         1 VTK       0.014000
     12 C18         -0.1330    13.5820     6.8870 ca         1 VTK      -0.177500
     13 C19          0.2770    14.1150     8.1230 ca         1 VTK       0.045000
     14 C20          2.2980    14.9720     7.0450 ca         1 VTK       0.014000
     15 C21          1.4970    14.8200     8.1890 ca         1 VTK      -0.177500
     16 N22         -0.5840    13.9310     9.2370 ns         1 VTK      -0.132000
     17 C23         -0.3990    14.1260    10.6000 c          1 VTK       0.634700
     18 O24          0.6800    14.4490    11.0870 o          1 VTK      -0.549100
     19 C25         -1.6110    13.7970    11.4460 ca         1 VTK      -0.117600
     20 C26         -2.4750    12.7430    11.0520 ca         1 VTK      -0.085000
     21 C27         -3.5820    12.3890    11.8400 ca         1 VTK      -0.105000
     22 C28         -3.8440    13.0770    13.0310 ca         1 VTK      -0.082000
     23 C29         -3.0030    14.1280    13.4250 ca         1 VTK      -0.135000
     24 C30         -1.8970    14.5060    12.6400 ca         1 VTK       0.283000
     25 N31         -1.1380    15.6070    13.0640 nh         1 VTK      -0.755300
     26 C32         -0.3840    15.5570    14.3290 c3         1 VTK       0.195100
     27 S33         -1.4940    17.1660    12.4110 s6         1 VTK       1.211100
     28 C34         -3.1430    17.5160    12.9930 c3         1 VTK      -0.380100
     29 O35         -0.5680    18.1210    13.0280 o          1 VTK      -0.526500
     30 O36         -1.5400    17.0170    10.9540 o          1 VTK      -0.526500
     31 H1           4.6490    10.4150     6.1840 hc         1 VTK       0.041700
     32 H2           5.9250     9.8930     5.0830 hc         1 VTK       0.041700
     33 H3           6.5310    12.0260     6.3240 hc         1 VTK       0.052200
     34 H4           6.5360    12.2450     4.5760 hc         1 VTK       0.052200
     35 H5           5.4010    14.1380     5.6610 h1         1 VTK       0.052700
     36 H6           4.2880    13.0550     6.5080 h1         1 VTK       0.052700
     37 H7           3.6250     9.8110     4.0060 hc         1 VTK       0.052200
     38 H8           4.7330    10.8710     3.1380 hc         1 VTK       0.052200
     39 H9           2.5390    11.9560     3.3780 h1         1 VTK       0.052700
     40 H10          2.5650    11.7420     5.1340 h1         1 VTK       0.052700
     41 H11          0.3240    13.3040     4.7950 ha         1 VTK       0.133000
     42 H12         -1.0750    13.0440     6.8110 ha         1 VTK       0.134000
     43 H13          3.2360    15.5210     7.1200 ha         1 VTK       0.133000
     44 H14          1.8380    15.2710     9.1160 ha         1 VTK       0.134000
     45 H15         -1.5130    13.6220     8.9870 hn         1 VTK       0.163000
     46 H16         -2.2810    12.1680    10.1490 ha         1 VTK       0.125000
     47 H17         -4.2310    11.5720    11.5310 ha         1 VTK       0.125000
     48 H18         -4.6990    12.8010    13.6450 ha         1 VTK       0.124000
     49 H19         -3.2210    14.6680    14.3420 ha         1 VTK       0.121000
     50 H20         -0.2790    14.5200    14.6740 h1         1 VTK       0.056700
     51 H21          0.6270    15.9650    14.1920 h1         1 VTK       0.056700
     52 H22         -0.8960    16.1300    15.1130 h1         1 VTK       0.056700
     53 H23         -3.1220    17.4770    14.0860 h1         1 VTK       0.101700
     54 H24         -3.4110    18.5140    12.6350 h1         1 VTK       0.101700
     55 H25         -3.8100    16.7540    12.5780 h1         1 VTK       0.101700
@<TRIPOS>BOND
     1     1     2 1   
     2     1     4 1   
     3     1    31 1   
     4     1    32 1   
     5     2     3 1   
     6     2    33 1   
     7     2    34 1   
     8     3     6 1   
     9     3    35 1   
    10     3    36 1   
    11     4     5 1   
    12     4    37 1   
    13     4    38 1   
    14     5     6 1   
    15     5    39 1   
    16     5    40 1   
    17     6     7 1   
    18     7     8 1   
    19     7     9 2   
    20     7    10 2   
    21     8    11 ar  
    22     8    14 ar  
    23    11    12 ar  
    24    11    41 1   
    25    12    13 ar  
    26    12    42 1   
    27    13    15 ar  
    28    13    16 1   
    29    14    15 ar  
    30    14    43 1   
    31    15    44 1   
    32    16    17 1   
    33    16    45 1   
    34    17    18 2   
    35    17    19 1   
    36    19    20 ar  
    37    19    24 ar  
    38    20    21 ar  
    39    20    46 1   
    40    21    22 ar  
    41    21    47 1   
    42    22    23 ar  
    43    22    48 1   
    44    23    24 ar  
    45    23    49 1   
    46    24    25 1   
    47    25    26 1   
    48    25    27 1   
    49    26    50 1   
    50    26    51 1   
    51    26    52 1   
    52    27    28 1   
    53    27    29 2   
    54    27    30 2   
    55    28    53 1   
    56    28    54 1   
    57    28    55 1   
@<TRIPOS>SUBSTRUCTURE
     1 VTK         1 TEMP              0 ****  ****    0 ROOT
