@<TRIPOS>MOLECULE
VTL
   24    24     1     0     0
SMALL
abcg2


@<TRIPOS>ATOM
      1 C7          25.6540    15.0310    37.6310 c3         1 VTL      -0.032100
      2 C8          25.1580    15.8080    36.4190 c3         1 VTL       0.162600
      3 O1          30.0150    17.7250    40.0660 oh         1 VTL      -0.537100
      4 C1          27.6450    17.4210    39.8110 ca         1 VTL       0.047100
      5 C5          29.2000    16.0550    38.5750 ca         1 VTL      -0.119000
      6 C6          28.9660    17.0720    39.4850 ca         1 VTL       0.115100
      7 C4          28.1290    15.3840    37.9860 ca         1 VTL      -0.101000
      8 C3          26.8160    15.7190    38.2990 ca         1 VTL      -0.086300
      9 C2          26.5850    16.7500    39.2190 ca         1 VTL      -0.146000
     10 O2          24.0420    15.1070    35.8610 oh         1 VTL      -0.672000
     11 C           26.2290    18.8490    41.1150 c3         1 VTL       0.158900
     12 H1          24.8240    14.9220    38.3340 hc         1 VTL       0.060200
     13 H2          25.9470    14.0290    37.3080 hc         1 VTL       0.060200
     14 H3          25.9630    15.8980    35.6810 h1         1 VTL       0.023200
     15 H4          24.8620    16.8190    36.7220 h1         1 VTL       0.023200
     16 H5          29.6610    18.3980    40.6670 ho         1 VTL       0.479000
     17 H6          30.2230    15.7930    38.3360 ha         1 VTL       0.132000
     18 H7          28.3260    14.5890    37.2770 ha         1 VTL       0.118000
     19 H8          25.5670    17.0160    39.4690 ha         1 VTL       0.117000
     20 H9          23.7380    15.5900    35.0840 ho         1 VTL       0.442000
     21 H10         26.3760    19.6440    41.8410 h1         1 VTL       0.043033
     22 H11         25.6700    19.2300    40.2570 h1         1 VTL       0.043033
     23 H12         25.6780    18.0260    41.5740 h1         1 VTL       0.043033
     24 O           27.5350    18.4300    40.7230 os         1 VTL      -0.376100
@<TRIPOS>BOND
     1     1     2 1   
     2     1     8 1   
     3     1    12 1   
     4     1    13 1   
     5     2    10 1   
     6     2    14 1   
     7     2    15 1   
     8     3     6 1   
     9     3    16 1   
    10     4     6 ar  
    11     4     9 ar  
    12     4    24 1   
    13     5     6 ar  
    14     5     7 ar  
    15     5    17 1   
    16     7     8 ar  
    17     7    18 1   
    18     8     9 ar  
    19     9    19 1   
    20    10    20 1   
    21    11    21 1   
    22    11    22 1   
    23    11    23 1   
    24    11    24 1   
@<TRIPOS>SUBSTRUCTURE
     1 VTL         1 TEMP              0 ****  ****    0 ROOT
