@<TRIPOS>MOLECULE
VTL
   24    24     1     0     0
SMALL
No Charge or Current Charge


@<TRIPOS>ATOM
      1 C7          25.6510    15.0230    37.6310 c3         1 VTL      -0.032100
      2 C8          25.1310    15.7790    36.3920 c3         1 VTL       0.162600
      3 O1          30.0600    17.6990    40.0690 oh         1 VTL      -0.537100
      4 C1          27.6890    17.4310    39.8280 ca         1 VTL       0.047100
      5 C5          29.2340    16.0360    38.5540 ca         1 VTL      -0.119000
      6 C6          29.0050    17.0580    39.4870 ca         1 VTL       0.115100
      7 C4          28.1480    15.3760    37.9540 ca         1 VTL      -0.101000
      8 C3          26.8280    15.7360    38.2860 ca         1 VTL      -0.086300
      9 C2          26.5990    16.7640    39.2230 ca         1 VTL      -0.146000
     10 O2          24.0280    15.0710    35.8120 oh         1 VTL      -0.672000
     11 C           26.2130    18.8990    41.1670 c3         1 VTL       0.158900
     12 H1          24.8310    14.9100    38.3520 hc         1 VTL       0.060200
     13 H2          25.9400    14.0070    37.3350 hc         1 VTL       0.060200
     14 H3          25.9460    15.8780    35.6630 h1         1 VTL       0.023200
     15 H4          24.8200    16.7890    36.6900 h1         1 VTL       0.023200
     16 H5          29.6740    18.3670    40.6790 ho         1 VTL       0.479000
     17 H6          30.2520    15.7550    38.2950 ha         1 VTL       0.132000
     18 H7          28.3340    14.5860    37.2290 ha         1 VTL       0.118000
     19 H8          25.5750    17.0320    39.4660 ha         1 VTL       0.117000
     20 H9          23.7360    15.5900    35.0290 ho         1 VTL       0.442000
     21 H10         26.3060    19.7070    41.9030 h1         1 VTL       0.043033
     22 H11         25.6440    19.2830    40.3110 h1         1 VTL       0.043033
     23 H12         25.6450    18.0820    41.6300 h1         1 VTL       0.043033
     24 O           27.5170    18.4470    40.7540 os         1 VTL      -0.376100
@<TRIPOS>BOND
     1     1     2 1   
     2     1     8 1   
     3     1    12 1   
     4     1    13 1   
     5     2    10 1   
     6     2    14 1   
     7     2    15 1   
     8     3     6 1   
     9     3    16 1   
    10     4     6 ar  
    11     4     9 ar  
    12     4    24 1   
    13     5     6 ar  
    14     5     7 ar  
    15     5    17 1   
    16     7     8 ar  
    17     7    18 1   
    18     8     9 ar  
    19     9    19 1   
    20    10    20 1   
    21    11    21 1   
    22    11    22 1   
    23    11    23 1   
    24    11    24 1   
@<TRIPOS>SUBSTRUCTURE
     1 VTL         1 TEMP              0 ****  ****    0 ROOT
