@<TRIPOS>MOLECULE
VTM
   59    62     1     0     0
SMALL
No Charge or Current Charge


@<TRIPOS>ATOM
      1 C6          -4.2910    -1.5300    20.5640 ca         1 VTM      -0.037300
      2 C7          -3.5790    -1.0560    19.4320 ca         1 VTM      -0.217000
      3 C8          -5.5670    -0.9660    20.7730 ca         1 VTM      -0.260000
      4 C10         -4.1710    -0.0710    18.6230 ca         1 VTM       0.723900
      5 C20         -7.9990     1.3670    18.9580 c5         1 VTM       0.224300
      6 C21         -8.1090     0.5490    21.3020 c5         1 VTM       0.224300
      7 C22         -9.2820     1.5350    21.0290 c5         1 VTM      -0.113200
      8 C24        -10.0060     2.8900    19.1620 c5         1 VTM       0.163300
      9 C26         -8.8000     2.9960    21.2330 c5         1 VTM       0.163300
     10 C28         -3.4150     1.5300    15.3470 ca         1 VTM      -0.182000
     11 C11         -2.2720    -1.5470    19.1050 cg         1 VTM       0.350000
     12 C12         -6.0650    -0.0030    19.8840 ca         1 VTM       0.703900
     13 C23         -9.4560     1.4730    19.5010 c5         1 VTM      -0.113200
     14 C27         -3.7690     1.5750    16.7130 ca         1 VTM       0.326000
     15 C29         -3.5700     2.6760    14.5470 ca         1 VTM      -0.056000
     16 C30         -4.0660     3.8680    15.1030 ca         1 VTM      -0.154000
     17 C31         -4.4070     3.9280    16.4670 ca         1 VTM      -0.028300
     18 C32         -4.2520     2.7780    17.2630 ca         1 VTM      -0.090000
     19 C34         -4.2760    -1.0430    14.4800 c3         1 VTM       0.038900
     20 C35         -4.8960     5.2290    17.0940 c3         1 VTM       0.260900
     21 C9          -3.7270    -2.6030    21.5220 c3         1 VTM       0.351300
     22 F13         -4.5740    -2.9040    22.5330 f          1 VTM      -0.112000
     23 F14         -3.4700    -3.7660    20.8810 f          1 VTM      -0.112000
     24 F15         -2.5710    -2.2020    22.1000 f          1 VTM      -0.112000
     25 N16         -5.3810     0.4310    18.8270 nb         1 VTM      -0.809000
     26 N17         -3.5630     0.4410    17.4970 nu         1 VTM      -0.942900
     27 N18         -1.2120    -1.9460    18.8230 n1         1 VTM      -0.486000
     28 N19         -7.3350     0.5750    20.0300 nh         1 VTM      -0.754300
     29 N25         -9.6890     3.7670    20.3280 n7         1 VTM      -0.874400
     30 O1          -6.1750     5.0120    17.7000 os         1 VTM      -0.598400
     31 P2          -6.6460     5.9940    18.8860 p5         1 VTM       1.416400
     32 H1          -6.1800    -1.2810    21.6100 ha         1 VTM       0.136000
     33 H2          -7.5150     2.3470    18.8380 h1         1 VTM       0.064200
     34 H3          -7.9770     0.8570    17.9840 h1         1 VTM       0.064200
     35 H4          -8.4940    -0.4610    21.4980 h1         1 VTM       0.064200
     36 H5          -7.5080     0.8600    22.1690 h1         1 VTM       0.064200
     37 H6         -10.1960     1.3080    21.5910 hc         1 VTM       0.055200
     38 H7          -9.5720     3.2870    18.2320 h1         1 VTM       0.049450
     39 H8         -11.0950     2.8540    19.0160 h1         1 VTM       0.049450
     40 H9          -8.8940     3.3260    22.2780 h1         1 VTM       0.049450
     41 H10         -7.7480     3.1320    20.9420 h1         1 VTM       0.049450
     42 H11        -10.0940     0.6470    19.1640 hc         1 VTM       0.055200
     43 H12         -3.3040     2.6440    13.4930 ha         1 VTM       0.113000
     44 H13         -5.9770     5.7210    21.1950 hc         1 VTM       0.042700
     45 H14         -5.6120     4.2630    20.2330 hc         1 VTM       0.042700
     46 H15         -4.5610     5.7040    20.1110 hc         1 VTM       0.042700
     47 H16         -4.1740     4.7480    14.4730 ha         1 VTM       0.111000
     48 H17         -4.4920     2.8280    18.3200 ha         1 VTM       0.168000
     49 H18         -4.0090    -2.0020    14.0190 h1         1 VTM       0.059700
     50 H19         -4.6800    -1.2240    15.4830 h1         1 VTM       0.059700
     51 H20         -5.0410    -0.5490    13.8690 h1         1 VTM       0.059700
     52 H21         -4.1520     5.5640    17.8300 h1         1 VTM       0.032700
     53 H22         -4.9710     6.0060    16.3220 h1         1 VTM       0.032700
     54 H23         -2.9040    -0.2070    17.0810 hn         1 VTM       0.520000
     55 H24         -9.1640     4.6020    19.9820 hn         1 VTM       0.496000
     56 C3          -5.5910     5.3570    20.2370 c3         1 VTM      -0.473100
     57 O4          -6.3280     7.4240    18.5960 o          1 VTM      -0.828000
     58 O5          -8.0770     5.7750    19.2470 o          1 VTM      -0.828000
     59 S33         -2.7780     0.0340    14.5850 ss         1 VTM      -0.243000
@<TRIPOS>BOND
     1     1     2 ar  
     2     1     3 ar  
     3     1    21 1   
     4     2     4 ar  
     5     2    11 1   
     6     3    12 ar  
     7     3    32 1   
     8     4    25 ar  
     9     4    26 1   
    10     5    13 1   
    11     5    28 1   
    12     5    33 1   
    13     5    34 1   
    14     6     7 1   
    15     6    28 1   
    16     6    35 1   
    17     6    36 1   
    18     7     9 1   
    19     7    13 1   
    20     7    37 1   
    21     8    13 1   
    22     8    29 1   
    23     8    38 1   
    24     8    39 1   
    25     9    29 1   
    26     9    40 1   
    27     9    41 1   
    28    10    14 ar  
    29    10    15 ar  
    30    10    59 1   
    31    11    27 3   
    32    12    25 ar  
    33    12    28 1   
    34    13    42 1   
    35    14    18 ar  
    36    14    26 1   
    37    15    16 ar  
    38    15    43 1   
    39    16    17 ar  
    40    16    47 1   
    41    17    18 ar  
    42    17    20 1   
    43    18    48 1   
    44    19    49 1   
    45    19    50 1   
    46    19    51 1   
    47    19    59 1   
    48    20    30 1   
    49    20    52 1   
    50    20    53 1   
    51    21    22 1   
    52    21    23 1   
    53    21    24 1   
    54    26    54 1   
    55    29    55 1   
    56    30    31 1   
    57    31    56 1   
    58    31    57 1   
    59    31    58 1   
    60    44    56 1   
    61    45    56 1   
    62    46    56 1   
@<TRIPOS>SUBSTRUCTURE
     1 VTM         1 TEMP              0 ****  ****    0 ROOT
