@<TRIPOS>MOLECULE
VTM
   59    62     1     0     0
SMALL
abcg2


@<TRIPOS>ATOM
      1 C6          -4.5710    -1.7670    20.3630 ca         1 VTM      -0.037300
      2 C7          -3.7180    -1.2650    19.3630 ca         1 VTM      -0.217000
      3 C8          -5.7880    -1.1990    20.5940 ca         1 VTM      -0.260000
      4 C10         -4.1910    -0.1600    18.6100 ca         1 VTM       0.723900
      5 C20         -7.7890     1.6360    19.1390 c5         1 VTM       0.224300
      6 C21         -8.3190     0.1190    20.9620 c5         1 VTM       0.224300
      7 C22         -9.3780     1.2060    20.8880 c5         1 VTM      -0.113200
      8 C24         -9.7540     3.2040    19.6330 c5         1 VTM       0.163300
      9 C26         -9.1110     2.4450    21.7750 c5         1 VTM       0.163300
     10 C28         -3.2880     1.4140    15.4630 ca         1 VTM      -0.182000
     11 C11         -2.4380    -1.8000    19.1070 cg         1 VTM       0.350000
     12 C12         -6.1580    -0.0760    19.7990 ca         1 VTM       0.703900
     13 C23         -9.2770     1.7640    19.4670 c5         1 VTM      -0.113200
     14 C27         -3.6520     1.4600    16.8160 ca         1 VTM       0.326000
     15 C29         -3.4280     2.5560    14.6800 ca         1 VTM      -0.056000
     16 C30         -3.9360     3.7240    15.2160 ca         1 VTM      -0.154000
     17 C31         -4.3090     3.7730    16.5580 ca         1 VTM      -0.028300
     18 C32         -4.1590     2.6460    17.3500 ca         1 VTM      -0.090000
     19 C34         -4.1040    -1.0560    14.5390 c3         1 VTM       0.038900
     20 C35         -4.8420     5.0690    17.1110 c3         1 VTM       0.260900
     21 C9          -4.1050    -2.9350    21.1890 c3         1 VTM       0.351300
     22 F13         -5.0200    -3.3580    22.0580 f          1 VTM      -0.112000
     23 F14         -3.7840    -3.9740    20.4120 f          1 VTM      -0.112000
     24 F15         -3.0110    -2.6140    21.8900 f          1 VTM      -0.112000
     25 N16         -5.3600     0.4020    18.8430 nb         1 VTM      -0.809000
     26 N17         -3.4190     0.3320    17.6050 nu         1 VTM      -0.942900
     27 N18         -1.3840    -2.2070    18.8630 n1         1 VTM      -0.486000
     28 N19         -7.3300     0.5330    19.9760 nh         1 VTM      -0.754300
     29 N25         -9.2780     3.6350    20.9400 n7         1 VTM      -0.874400
     30 O1          -5.2020     4.9360    18.4580 os         1 VTM      -0.598400
     31 P2          -6.4670     5.7980    19.1050 p5         1 VTM       1.416400
     32 H1          -6.4530    -1.5850    21.3510 ha         1 VTM       0.136000
     33 H2          -7.2400     2.5510    19.3840 h1         1 VTM       0.064200
     34 H3          -7.6110     1.4220    18.0850 h1         1 VTM       0.064200
     35 H4          -8.7330    -0.8600    20.7030 h1         1 VTM       0.064200
     36 H5          -7.8780     0.0390    21.9580 h1         1 VTM       0.064200
     37 H6         -10.3660     0.7940    21.0940 hc         1 VTM       0.055200
     38 H7          -9.3810     3.8730    18.8560 h1         1 VTM       0.049450
     39 H8         -10.8480     3.2280    19.5820 h1         1 VTM       0.049450
     40 H9          -9.8020     2.4470    22.6230 h1         1 VTM       0.049450
     41 H10         -8.1020     2.4170    22.1990 h1         1 VTM       0.049450
     42 H11         -9.8780     1.1980    18.7530 hc         1 VTM       0.055200
     43 H12         -3.1420     2.5170    13.6370 ha         1 VTM       0.113000
     44 H13         -6.4190     8.0950    19.8610 hc         1 VTM       0.042700
     45 H14         -4.8450     7.3350    20.0870 hc         1 VTM       0.042700
     46 H15         -5.3480     7.8780    18.4820 hc         1 VTM       0.042700
     47 H16         -4.0440     4.6010    14.5890 ha         1 VTM       0.111000
     48 H17         -4.4240     2.6870    18.3950 ha         1 VTM       0.168000
     49 H18         -3.7930    -2.0160    14.1280 h1         1 VTM       0.059700
     50 H19         -4.6000    -1.2250    15.4920 h1         1 VTM       0.059700
     51 H20         -4.7880    -0.5760    13.8430 h1         1 VTM       0.059700
     52 H21         -4.0700     5.8410    16.9930 h1         1 VTM       0.032700
     53 H22         -5.6920     5.3870    16.4980 h1         1 VTM       0.032700
     54 H23         -2.6820    -0.2670    17.2550 hn         1 VTM       0.520000
     55 H24         -8.3870     4.1100    20.8240 hn         1 VTM       0.496000
     56 C3          -5.6930     7.4180    19.4090 c3         1 VTM      -0.473100
     57 O4          -7.5550     5.9340    18.0760 o          1 VTM      -0.828000
     58 O5          -6.7310     5.1150    20.4240 o          1 VTM      -0.828000
     59 S33         -2.6030    -0.0570    14.7520 ss         1 VTM      -0.243000
@<TRIPOS>BOND
     1     1     2 ar  
     2     1     3 ar  
     3     1    21 1   
     4     2     4 ar  
     5     2    11 1   
     6     3    12 ar  
     7     3    32 1   
     8     4    25 ar  
     9     4    26 1   
    10     5    13 1   
    11     5    28 1   
    12     5    33 1   
    13     5    34 1   
    14     6     7 1   
    15     6    28 1   
    16     6    35 1   
    17     6    36 1   
    18     7     9 1   
    19     7    13 1   
    20     7    37 1   
    21     8    13 1   
    22     8    29 1   
    23     8    38 1   
    24     8    39 1   
    25     9    29 1   
    26     9    40 1   
    27     9    41 1   
    28    10    14 ar  
    29    10    15 ar  
    30    10    59 1   
    31    11    27 3   
    32    12    25 ar  
    33    12    28 1   
    34    13    42 1   
    35    14    18 ar  
    36    14    26 1   
    37    15    16 ar  
    38    15    43 1   
    39    16    17 ar  
    40    16    47 1   
    41    17    18 ar  
    42    17    20 1   
    43    18    48 1   
    44    19    49 1   
    45    19    50 1   
    46    19    51 1   
    47    19    59 1   
    48    20    30 1   
    49    20    52 1   
    50    20    53 1   
    51    21    22 1   
    52    21    23 1   
    53    21    24 1   
    54    26    54 1   
    55    29    55 1   
    56    30    31 1   
    57    31    56 1   
    58    31    57 1   
    59    31    58 1   
    60    44    56 1   
    61    45    56 1   
    62    46    56 1   
@<TRIPOS>SUBSTRUCTURE
     1 VTM         1 TEMP              0 ****  ****    0 ROOT
