@<TRIPOS>MOLECULE
VTN
   38    39     1     0     0
SMALL
abcg2


@<TRIPOS>ATOM
      1 C18         50.6200   -30.1530    35.7280 ca         1 VTN      -0.121000
      2 C17         49.1220   -29.9000    39.6150 ca         1 VTN      -0.098000
      3 C16         47.2950   -29.9000    41.2270 cg         1 VTN       0.320000
      4 C15         47.9730   -29.2960    40.1230 ca         1 VTN       0.022000
      5 C14         47.4610   -28.1180    39.5700 ca         1 VTN      -0.094000
      6 C13         48.1360   -27.5610    38.4970 ca         1 VTN       0.146000
      7 C1          47.8560   -34.5760    36.0860 c2         1 VTN      -0.228000
      8 C2          49.0200   -34.1300    35.6260 ce         1 VTN      -0.303200
      9 C4          50.6530   -32.0160    32.9660 c3         1 VTN       0.111000
     10 C5          50.3200   -30.5420    33.2610 c3         1 VTN      -0.063100
     11 N1          50.3630   -32.9030    34.0780 ns         1 VTN      -0.506900
     12 C7          52.3270   -29.3650    34.2430 ca         1 VTN      -0.105000
     13 N2          46.7500   -30.3870    42.1180 n1         1 VTN      -0.437000
     14 C8          53.0640   -28.8980    35.3220 ca         1 VTN      -0.090000
     15 C12         49.2830   -28.1360    37.9670 ca         1 VTN      -0.146000
     16 C9          52.5740   -29.0590    36.6130 ca         1 VTN       0.111000
     17 C10         51.3530   -29.6940    36.8130 ca         1 VTN       0.096100
     18 C11         49.7660   -29.3100    38.5360 ca         1 VTN       0.137100
     19 C6          51.0940   -29.9940    34.4280 ca         1 VTN      -0.061300
     20 O2          50.9080   -29.9250    38.1010 os         1 VTN      -0.242200
     21 O1          48.1340   -33.0320    33.6880 o          1 VTN      -0.610100
     22 CL1         53.4760   -28.4560    37.9760 cl         1 VTN      -0.176000
     23 H1          49.6680   -30.6330    35.9130 ha         1 VTN       0.136000
     24 H2          49.5100   -30.8140    40.0430 ha         1 VTN       0.146000
     25 H3          46.5680   -27.6600    39.9680 ha         1 VTN       0.145000
     26 H4          46.9330   -34.3610    35.5600 ha         1 VTN       0.178500
     27 H5          47.7950   -35.1630    36.9930 ha         1 VTN       0.178500
     28 H6          49.9440   -34.3400    36.1530 ha         1 VTN       0.176000
     29 H7          50.0760   -32.3440    32.1010 h1         1 VTN       0.059200
     30 H8          51.7110   -32.1200    32.7310 h1         1 VTN       0.059200
     31 H9          50.5430   -29.9650    32.3620 hc         1 VTN       0.067700
     32 H10         49.2490   -30.4590    33.4510 hc         1 VTN       0.067700
     33 H11         51.1080   -33.1170    34.7220 hn         1 VTN       0.316500
     34 H12         52.7170   -29.2340    33.2410 ha         1 VTN       0.123000
     35 H13         54.0140   -28.4040    35.1710 ha         1 VTN       0.136000
     36 H14         49.7900   -27.6760    37.1310 ha         1 VTN       0.147000
     37 CL2         47.5320   -26.0860    37.7880 cl         1 VTN      -0.189000
     38 C3          49.1130   -33.3130    34.3840 c          1 VTN       0.592300
@<TRIPOS>BOND
     1     1    17 ar  
     2     1    19 ar  
     3     1    23 1   
     4     2     4 ar  
     5     2    18 ar  
     6     2    24 1   
     7     3     4 1   
     8     3    13 3   
     9     4     5 ar  
    10     5     6 ar  
    11     5    25 1   
    12     6    15 ar  
    13     6    37 1   
    14     7     8 2   
    15     7    26 1   
    16     7    27 1   
    17     8    28 1   
    18     8    38 1   
    19     9    10 1   
    20     9    11 1   
    21     9    29 1   
    22     9    30 1   
    23    10    19 1   
    24    10    31 1   
    25    10    32 1   
    26    11    33 1   
    27    11    38 1   
    28    12    14 ar  
    29    12    19 ar  
    30    12    34 1   
    31    14    16 ar  
    32    14    35 1   
    33    15    18 ar  
    34    15    36 1   
    35    16    17 ar  
    36    16    22 1   
    37    17    20 1   
    38    18    20 1   
    39    21    38 2   
@<TRIPOS>SUBSTRUCTURE
     1 VTN         1 TEMP              0 ****  ****    0 ROOT
