@<TRIPOS>MOLECULE
VTN
   38    39     1     0     0
SMALL
No Charge or Current Charge


@<TRIPOS>ATOM
      1 C18         50.8730   -29.8580    35.6940 ca         1 VTN      -0.121000
      2 C17         49.3580   -30.3020    39.2040 ca         1 VTN      -0.098000
      3 C16         47.4120   -31.2600    40.3800 cg         1 VTN       0.320000
      4 C15         47.9880   -30.2540    39.5290 ca         1 VTN       0.022000
      5 C14         47.1870   -29.2170    39.0120 ca         1 VTN      -0.094000
      6 C13         47.7530   -28.2360    38.1820 ca         1 VTN       0.146000
      7 C1          47.6200   -33.0740    37.1230 c2         1 VTN      -0.228000
      8 C2          48.6650   -33.2240    36.2720 ce         1 VTN      -0.303200
      9 C4          50.3820   -31.9540    33.1190 c3         1 VTN       0.111000
     10 C5          50.4490   -30.4150    33.2510 c3         1 VTN      -0.063100
     11 N1          50.0010   -32.6240    34.3670 ns         1 VTN      -0.506900
     12 C7          52.7080   -29.6160    34.1160 ca         1 VTN      -0.105000
     13 N2          46.9430   -32.0830    41.0620 n1         1 VTN      -0.437000
     14 C8          53.5510   -29.2010    35.1620 ca         1 VTN      -0.090000
     15 C12         49.1180   -28.2840    37.8600 ca         1 VTN      -0.146000
     16 C9          53.0590   -29.1190    36.4760 ca         1 VTN       0.111000
     17 C10         51.7140   -29.4440    36.7480 ca         1 VTN       0.096100
     18 C11         49.9170   -29.3240    38.3650 ca         1 VTN       0.137100
     19 C6          51.3650   -29.9490    34.3780 ca         1 VTN      -0.061300
     20 O2          51.2530   -29.3920    38.0500 os         1 VTN      -0.242200
     21 O1          47.7960   -32.0450    34.3860 o          1 VTN      -0.610100
     22 Cl1         54.1430   -28.6100    37.7710 cl         1 VTN      -0.176000
     23 H1          49.8400   -30.1280    35.8910 ha         1 VTN       0.136000
     24 H2          49.9900   -31.0980    39.5910 ha         1 VTN       0.146000
     25 H3          46.1270   -29.1680    39.2530 ha         1 VTN       0.145000
     26 H4          46.7360   -32.4910    36.8550 ha         1 VTN       0.178500
     27 H5          47.6150   -33.5330    38.1130 ha         1 VTN       0.178500
     28 H6          49.5430   -33.7860    36.5870 ha         1 VTN       0.176000
     29 H7          49.6630   -32.2240    32.3330 h1         1 VTN       0.059200
     30 H8          51.3680   -32.3300    32.8130 h1         1 VTN       0.059200
     31 H9          50.7810   -29.9970    32.2930 hc         1 VTN       0.067700
     32 H10         49.4360   -30.0260    33.4090 hc         1 VTN       0.067700
     33 H11         50.7250   -33.0860    34.9040 hn         1 VTN       0.316500
     34 H12         53.1010   -29.6830    33.1040 ha         1 VTN       0.123000
     35 H13         54.5880   -28.9490    34.9560 ha         1 VTN       0.136000
     36 H14         49.5520   -27.5220    37.2190 ha         1 VTN       0.147000
     37 Cl2         46.7500   -26.9420    37.5420 cl         1 VTN      -0.189000
     38 C3          48.7460   -32.5930    34.9250 c          1 VTN       0.592300
@<TRIPOS>BOND
     1     1    17 ar  
     2     1    19 ar  
     3     1    23 1   
     4     2     4 ar  
     5     2    18 ar  
     6     2    24 1   
     7     3     4 1   
     8     3    13 3   
     9     4     5 ar  
    10     5     6 ar  
    11     5    25 1   
    12     6    15 ar  
    13     6    37 1   
    14     7     8 2   
    15     7    26 1   
    16     7    27 1   
    17     8    28 1   
    18     8    38 1   
    19     9    10 1   
    20     9    11 1   
    21     9    29 1   
    22     9    30 1   
    23    10    19 1   
    24    10    31 1   
    25    10    32 1   
    26    11    33 1   
    27    11    38 1   
    28    12    14 ar  
    29    12    19 ar  
    30    12    34 1   
    31    14    16 ar  
    32    14    35 1   
    33    15    18 ar  
    34    15    36 1   
    35    16    17 ar  
    36    16    22 1   
    37    17    20 1   
    38    18    20 1   
    39    21    38 2   
@<TRIPOS>SUBSTRUCTURE
     1 VTN         1 TEMP              0 ****  ****    0 ROOT
