@<TRIPOS>MOLECULE
VTO
   22    22     1     0     0
SMALL
abcg2


@<TRIPOS>ATOM
      1 N1          10.8630    -2.1570   -12.2050 nv         1 VTO      -1.058900
      2 C7          10.7090    -0.5310   -10.4260 ca         1 VTO      -0.178000
      3 O1          10.3570     0.2880    -7.7400 o          1 VTO      -0.486000
      4 C1          10.2950     2.8980    -7.0170 c3         1 VTO       0.165600
      5 C5          11.0320     1.3720   -12.3370 ca         1 VTO       0.368900
      6 C6          10.8910    -0.8540   -11.7840 ca         1 VTO       0.584900
      7 C4          10.8560     1.7880   -11.0290 ca         1 VTO      -0.172000
      8 C3          10.6930     0.7980   -10.0530 ca         1 VTO      -0.061600
      9 C2          10.4980     1.1260    -8.6060 c          1 VTO       0.602700
     10 O           10.5010     2.4410    -8.3820 os         1 VTO      -0.448100
     11 C            8.8190     3.0100    -6.6990 c3         1 VTO      -0.120100
     12 N           11.0530     0.0910   -12.7210 nb         1 VTO      -0.727000
     13 H1          11.2480    -2.3390   -13.1190 hn         1 VTO       0.476000
     14 H2          11.0290    -2.8750   -11.5180 hn         1 VTO       0.476000
     15 H3          10.5830    -1.3120    -9.6890 ha         1 VTO       0.142000
     16 H4          10.8050     2.2140    -6.3410 h1         1 VTO       0.062200
     17 H5          10.7860     3.8680    -6.9870 h1         1 VTO       0.062200
     18 H6          11.1660     2.1040   -13.1260 h4         1 VTO       0.021100
     19 H7          10.8500     2.8370   -10.7780 ha         1 VTO       0.141000
     20 H8           8.6980     3.4120    -5.6910 hc         1 VTO       0.049367
     21 H9           8.3240     3.6850    -7.4000 hc         1 VTO       0.049367
     22 H10          8.3320     2.0360    -6.7420 hc         1 VTO       0.049367
@<TRIPOS>BOND
     1     1     6 1   
     2     1    13 1   
     3     1    14 1   
     4     2     6 ar  
     5     2     8 ar  
     6     2    15 1   
     7     3     9 2   
     8     4    10 1   
     9     4    11 1   
    10     4    16 1   
    11     4    17 1   
    12     5     7 ar  
    13     5    12 ar  
    14     5    18 1   
    15     6    12 ar  
    16     7     8 ar  
    17     7    19 1   
    18     8     9 1   
    19     9    10 1   
    20    11    20 1   
    21    11    21 1   
    22    11    22 1   
@<TRIPOS>SUBSTRUCTURE
     1 VTO         1 TEMP              0 ****  ****    0 ROOT
