@<TRIPOS>MOLECULE
VTO
   22    22     1     0     0
SMALL
No Charge or Current Charge


@<TRIPOS>ATOM
      1 N1          10.8410    -2.1200   -12.2770 nv         1 VTO      -1.058900
      2 C7          10.6620    -0.5850   -10.4230 ca         1 VTO      -0.178000
      3 O1          10.3180     0.3080    -7.6750 o          1 VTO      -0.486000
      4 C1          10.3360     2.9990    -6.9940 c3         1 VTO       0.165600
      5 C5          11.0680     1.3150   -12.3560 ca         1 VTO       0.368900
      6 C6          10.8400    -0.8790   -11.7790 ca         1 VTO       0.584900
      7 C4          10.8980     1.7300   -11.0230 ca         1 VTO      -0.172000
      8 C3          10.6880     0.7650   -10.0100 ca         1 VTO      -0.061600
      9 C2          10.4970     1.1410    -8.5560 c          1 VTO       0.602700
     10 O           10.5600     2.4950    -8.3260 os         1 VTO      -0.448100
     11 C            8.8220     2.9750    -6.6980 c3         1 VTO      -0.120100
     12 N           11.0410     0.0170   -12.7350 nb         1 VTO      -0.727000
     13 H1          11.2070    -2.2010   -13.2180 hn         1 VTO       0.476000
     14 H2          11.0450    -2.8860   -11.6440 hn         1 VTO       0.476000
     15 H3          10.5040    -1.3870    -9.7090 ha         1 VTO       0.142000
     16 H4          10.8840     2.4150    -6.2420 h1         1 VTO       0.062200
     17 H5          10.6850     4.0380    -6.9260 h1         1 VTO       0.062200
     18 H6          11.2320     2.0470   -13.1460 h4         1 VTO       0.021100
     19 H7          10.9320     2.7910   -10.7940 ha         1 VTO       0.141000
     20 H8           8.6220     3.4340    -5.7230 hc         1 VTO       0.049367
     21 H9           8.2710     3.5390    -7.4610 hc         1 VTO       0.049367
     22 H10          8.4350     1.9500    -6.6740 hc         1 VTO       0.049367
@<TRIPOS>BOND
     1     1     6 1   
     2     1    13 1   
     3     1    14 1   
     4     2     6 ar  
     5     2     8 ar  
     6     2    15 1   
     7     3     9 2   
     8     4    10 1   
     9     4    11 1   
    10     4    16 1   
    11     4    17 1   
    12     5     7 ar  
    13     5    12 ar  
    14     5    18 1   
    15     6    12 ar  
    16     7     8 ar  
    17     7    19 1   
    18     8     9 1   
    19     9    10 1   
    20    11    20 1   
    21    11    21 1   
    22    11    22 1   
@<TRIPOS>SUBSTRUCTURE
     1 VTO         1 TEMP              0 ****  ****    0 ROOT
