@<TRIPOS>MOLECULE
VTQ
   82    82     1     0     0
SMALL
No Charge or Current Charge


@<TRIPOS>ATOM
      1 O3           1.2350     2.2100    -3.0880 oh         1 VTQ      -0.659000
      2 C9           0.0070     1.5120    -2.8700 c3         1 VTQ       0.188000
      3 C14         -1.1300     2.5620    -2.7610 c3         1 VTQ      -0.081100
      4 C11         -0.2220     0.5400    -4.0700 c3         1 VTQ      -0.101400
      5 C10         -0.2810     1.1780    -5.4850 c3         1 VTQ      -0.033200
      6 C3          -0.4570     0.1390    -6.5850 cc         1 VTQ      -0.140400
      7 C2          -1.6950    -0.2760    -7.0650 cd         1 VTQ      -0.132400
      8 C8          -3.0210     0.2570    -6.5340 c3         1 VTQ      -0.054900
      9 C4           0.8150    -0.4580    -7.0980 c          1 VTQ       0.557500
     10 O1           1.9040    -0.1660    -6.6140 o          1 VTQ      -0.502100
     11 C5           0.7060    -1.3950    -8.2560 cc         1 VTQ      -0.139400
     12 C12          2.0360    -1.8830    -8.8140 c3         1 VTQ      -0.056900
     13 C6          -0.5300    -1.8190    -8.7300 cd         1 VTQ      -0.140400
     14 C13         -0.6800    -2.8360    -9.8550 c3         1 VTQ      -0.056900
     15 C7          -1.8100    -1.2790    -8.1710 c          1 VTQ       0.555500
     16 O2          -2.9010    -1.6290    -8.6100 o          1 VTQ      -0.501100
     17 C15          0.1450     0.6760    -1.5590 c3         1 VTQ      -0.102400
     18 C16          0.4470     1.4660    -0.2560 c3         1 VTQ      -0.071400
     19 C17          0.6580     0.5390     0.9660 c3         1 VTQ      -0.073400
     20 C18          0.8200     1.2690     2.3310 c3         1 VTQ      -0.057700
     21 C19          2.0730     2.1840     2.3630 c3         1 VTQ      -0.088100
     22 C20          0.8150     0.2360     3.4950 c3         1 VTQ      -0.072400
     23 C21          0.7660     0.8460     4.9180 c3         1 VTQ      -0.073400
     24 C22          0.6290    -0.2280     6.0260 c3         1 VTQ      -0.073400
     25 C23          0.4430     0.3270     7.4680 c3         1 VTQ      -0.056700
     26 C1           1.6630     1.1610     7.9390 c3         1 VTQ      -0.086100
     27 C24          0.1070    -0.8340     8.4490 c3         1 VTQ      -0.073400
     28 C25         -0.3010    -0.3930     9.8770 c3         1 VTQ      -0.073400
     29 C26         -0.7500    -1.5790    10.7650 c3         1 VTQ      -0.073400
     30 C27         -1.2700    -1.1800    12.1730 c3         1 VTQ      -0.059700
     31 C28         -1.8550    -2.4060    12.9120 c3         1 VTQ      -0.086600
     32 C29         -0.1950    -0.4820    13.0400 c3         1 VTQ      -0.086600
     33 H3           1.9380     1.5310    -3.1570 ho         1 VTQ       0.444000
     34 H141        -2.0970     2.0710    -2.5970 hc         1 VTQ       0.042367
     35 H142        -0.9540     3.2580    -1.9340 hc         1 VTQ       0.042367
     36 H143        -1.2050     3.1690    -3.6700 hc         1 VTQ       0.042367
     37 H111         0.5760    -0.2140    -4.0700 hc         1 VTQ       0.045700
     38 H112        -1.1540    -0.0130    -3.9000 hc         1 VTQ       0.045700
     39 H101        -1.0970     1.9070    -5.5330 hc         1 VTQ       0.067700
     40 H102         0.6250     1.7720    -5.6580 hc         1 VTQ       0.067700
     41 H8C1        -3.8210    -0.4900    -6.5770 hc         1 VTQ       0.055367
     42 H8C2        -2.9560     0.5590    -5.4830 hc         1 VTQ       0.055367
     43 H8C3        -3.3490     1.1300    -7.1110 hc         1 VTQ       0.055367
     44 H121         2.8160    -1.1140    -8.7600 hc         1 VTQ       0.055700
     45 H122         2.3900    -2.7610    -8.2620 hc         1 VTQ       0.055700
     46 H123         1.9590    -2.1580    -9.8720 hc         1 VTQ       0.055700
     47 H131        -1.6200    -3.3990    -9.7990 hc         1 VTQ       0.055700
     48 H132        -0.6460    -2.3440   -10.8340 hc         1 VTQ       0.055700
     49 H133         0.1170    -3.5880    -9.8310 hc         1 VTQ       0.055700
     50 H151         0.9390    -0.0690    -1.6960 hc         1 VTQ       0.039700
     51 H152        -0.7800     0.1060    -1.4090 hc         1 VTQ       0.039700
     52 H161        -0.3830     2.1480    -0.0360 hc         1 VTQ       0.046700
     53 H162         1.3410     2.0800    -0.4090 hc         1 VTQ       0.046700
     54 H171         1.5360    -0.0940     0.7890 hc         1 VTQ       0.035700
     55 H172        -0.2040    -0.1360     1.0310 hc         1 VTQ       0.035700
     56 H18         -0.0600     1.9120     2.4630 hc         1 VTQ       0.043700
     57 H191         2.9900     1.5960     2.2380 hc         1 VTQ       0.033033
     58 H192         2.0370     2.9370     1.5680 hc         1 VTQ       0.033033
     59 H193         2.1430     2.7320     3.3090 hc         1 VTQ       0.033033
     60 H201         1.7000    -0.4080     3.4120 hc         1 VTQ       0.036700
     61 H202        -0.0570    -0.4190     3.3770 hc         1 VTQ       0.036700
     62 H211        -0.0800     1.5420     4.9840 hc         1 VTQ       0.038700
     63 H212         1.6790     1.4240     5.0910 hc         1 VTQ       0.038700
     64 H221         1.5100    -0.8830     6.0010 hc         1 VTQ       0.036700
     65 H222        -0.2340    -0.8600     5.7810 hc         1 VTQ       0.036700
     66 H23         -0.4260     0.9970     7.4480 hc         1 VTQ       0.044700
     67 H1C1         2.5680     0.5420     7.9790 hc         1 VTQ       0.031367
     68 H1C2         1.8530     2.0050     7.2670 hc         1 VTQ       0.031367
     69 H1C3         1.4950     1.5870     8.9340 hc         1 VTQ       0.031367
     70 H241         0.9680    -1.5110     8.5160 hc         1 VTQ       0.036700
     71 H242        -0.7180    -1.4210     8.0270 hc         1 VTQ       0.036700
     72 H251        -1.1180     0.3370     9.8100 hc         1 VTQ       0.038700
     73 H252         0.5460     0.1090    10.3550 hc         1 VTQ       0.038700
     74 H261         0.0850    -2.2820    10.8730 hc         1 VTQ       0.036200
     75 H262        -1.5470    -2.1200    10.2400 hc         1 VTQ       0.036200
     76 H27         -2.0930    -0.4680    12.0340 hc         1 VTQ       0.043700
     77 H281        -2.2730    -2.1120    13.8830 hc         1 VTQ       0.031533
     78 H282        -2.6590    -2.8660    12.3260 hc         1 VTQ       0.031533
     79 H283        -1.0800    -3.1630    13.0870 hc         1 VTQ       0.031533
     80 H291         0.6910    -1.1180    13.1520 hc         1 VTQ       0.031533
     81 H292         0.1170     0.4710    12.5970 hc         1 VTQ       0.031533
     82 H293        -0.5880    -0.2640    14.0410 hc         1 VTQ       0.031533
@<TRIPOS>BOND
     1     1     2 1   
     2     1    33 1   
     3     2     3 1   
     4     2     4 1   
     5     2    17 1   
     6     3    34 1   
     7     3    35 1   
     8     3    36 1   
     9     4     5 1   
    10     4    37 1   
    11     4    38 1   
    12     5     6 1   
    13     5    39 1   
    14     5    40 1   
    15     6     7 2   
    16     6     9 1   
    17     7     8 1   
    18     7    15 1   
    19     8    41 1   
    20     8    42 1   
    21     8    43 1   
    22     9    10 2   
    23     9    11 1   
    24    11    12 1   
    25    11    13 2   
    26    12    44 1   
    27    12    45 1   
    28    12    46 1   
    29    13    14 1   
    30    13    15 1   
    31    14    47 1   
    32    14    48 1   
    33    14    49 1   
    34    15    16 2   
    35    17    18 1   
    36    17    50 1   
    37    17    51 1   
    38    18    19 1   
    39    18    52 1   
    40    18    53 1   
    41    19    20 1   
    42    19    54 1   
    43    19    55 1   
    44    20    21 1   
    45    20    22 1   
    46    20    56 1   
    47    21    57 1   
    48    21    58 1   
    49    21    59 1   
    50    22    23 1   
    51    22    60 1   
    52    22    61 1   
    53    23    24 1   
    54    23    62 1   
    55    23    63 1   
    56    24    25 1   
    57    24    64 1   
    58    24    65 1   
    59    25    26 1   
    60    25    27 1   
    61    25    66 1   
    62    26    67 1   
    63    26    68 1   
    64    26    69 1   
    65    27    28 1   
    66    27    70 1   
    67    27    71 1   
    68    28    29 1   
    69    28    72 1   
    70    28    73 1   
    71    29    30 1   
    72    29    74 1   
    73    29    75 1   
    74    30    31 1   
    75    30    32 1   
    76    30    76 1   
    77    31    77 1   
    78    31    78 1   
    79    31    79 1   
    80    32    80 1   
    81    32    81 1   
    82    32    82 1   
@<TRIPOS>SUBSTRUCTURE
     1 VTQ         1 TEMP              0 ****  ****    0 ROOT
