@<TRIPOS>MOLECULE
VTQ
   82    82     1     0     0
SMALL
abcg2


@<TRIPOS>ATOM
      1 O3           1.0480     2.2950    -2.9670 oh         1 VTQ      -0.659000
      2 C9          -0.1110     1.4910    -2.7880 c3         1 VTQ       0.188000
      3 C14         -1.2820     2.4580    -2.6660 c3         1 VTQ      -0.081100
      4 C11         -0.2940     0.5540    -3.9920 c3         1 VTQ      -0.101400
      5 C10         -0.3630     1.2560    -5.3520 c3         1 VTQ      -0.033200
      6 C3          -0.4660     0.2530    -6.4620 cc         1 VTQ      -0.140400
      7 C2          -1.6290    -0.2300    -6.9300 cd         1 VTQ      -0.132400
      8 C8          -2.9810     0.1680    -6.4330 c3         1 VTQ      -0.054900
      9 C4           0.8190    -0.2630    -7.0060 c          1 VTQ       0.557500
     10 O1           1.8730     0.1430    -6.5560 o          1 VTQ      -0.502100
     11 C5           0.8140    -1.2770    -8.0890 cc         1 VTQ      -0.139400
     12 C12          2.1260    -1.7650    -8.6130 c3         1 VTQ      -0.056900
     13 C6          -0.3500    -1.7380    -8.5750 cd         1 VTQ      -0.140400
     14 C13         -0.3950    -2.7620    -9.6630 c3         1 VTQ      -0.056900
     15 C7          -1.6320    -1.2380    -8.0230 c          1 VTQ       0.555500
     16 O2          -2.6910    -1.6480    -8.4560 o          1 VTQ      -0.501100
     17 C15          0.0280     0.6250    -1.5250 c3         1 VTQ      -0.102400
     18 C16          0.2320     1.3910    -0.2240 c3         1 VTQ      -0.071400
     19 C17          0.5270     0.4640     0.9500 c3         1 VTQ      -0.073400
     20 C18          0.6880     1.1750     2.2970 c3         1 VTQ      -0.057700
     21 C19          1.9330     2.0580     2.3240 c3         1 VTQ      -0.088100
     22 C20          0.6980     0.1550     3.4390 c3         1 VTQ      -0.072400
     23 C21          0.7060     0.7640     4.8370 c3         1 VTQ      -0.073400
     24 C22          0.5900    -0.2870     5.9350 c3         1 VTQ      -0.073400
     25 C23          0.5360     0.2770     7.3580 c3         1 VTQ      -0.056700
     26 C1           1.8790     0.8670     7.7780 c3         1 VTQ      -0.086100
     27 C24          0.0630    -0.8030     8.3340 c3         1 VTQ      -0.073400
     28 C25         -0.1800    -0.3280     9.7620 c3         1 VTQ      -0.073400
     29 C26         -0.8310    -1.4030    10.6260 c3         1 VTQ      -0.073400
     30 C27         -1.1750    -0.9670    12.0520 c3         1 VTQ      -0.059700
     31 C28         -1.9500    -2.0670    12.7700 c3         1 VTQ      -0.086600
     32 C29          0.0660    -0.5810    12.8510 c3         1 VTQ      -0.086600
     33 H3           1.8070     1.7100    -3.0620 ho         1 VTQ       0.444000
     34 H141        -2.2160     1.9090    -2.5330 hc         1 VTQ       0.042367
     35 H142        -1.1630     3.1250    -1.8120 hc         1 VTQ       0.042367
     36 H143        -1.3840     3.0820    -3.5540 hc         1 VTQ       0.042367
     37 H111         0.5350    -0.1620    -4.0020 hc         1 VTQ       0.045700
     38 H112        -1.1990    -0.0440    -3.8460 hc         1 VTQ       0.045700
     39 H101        -1.2190     1.9290    -5.3900 hc         1 VTQ       0.067700
     40 H102         0.5230     1.8750    -5.4880 hc         1 VTQ       0.067700
     41 H8C1        -3.5310    -0.7030    -6.0740 hc         1 VTQ       0.055367
     42 H8C2        -2.9320     0.8820    -5.6170 hc         1 VTQ       0.055367
     43 H8C3        -3.5760     0.6120    -7.2320 hc         1 VTQ       0.055367
     44 H121         2.9700    -1.2810    -8.1300 hc         1 VTQ       0.055700
     45 H122         2.2230    -2.8420    -8.4640 hc         1 VTQ       0.055700
     46 H123         2.2040    -1.5880    -9.6880 hc         1 VTQ       0.055700
     47 H131        -1.4110    -3.0180    -9.9470 hc         1 VTQ       0.055700
     48 H132         0.1260    -2.4040   -10.5540 hc         1 VTQ       0.055700
     49 H133         0.1110    -3.6780    -9.3520 hc         1 VTQ       0.055700
     50 H151         0.8720    -0.0610    -1.6720 hc         1 VTQ       0.039700
     51 H152        -0.8570    -0.0140    -1.4360 hc         1 VTQ       0.039700
     52 H161        -0.6630     1.9750     0.0100 hc         1 VTQ       0.046700
     53 H162         1.0430     2.1120    -0.3530 hc         1 VTQ       0.046700
     54 H171         1.4330    -0.1180     0.7400 hc         1 VTQ       0.035700
     55 H172        -0.2860    -0.2670     1.0330 hc         1 VTQ       0.035700
     56 H18         -0.1900     1.8210     2.4380 hc         1 VTQ       0.043700
     57 H191         2.8400     1.4500     2.2580 hc         1 VTQ       0.033033
     58 H192         1.9480     2.7650     1.4940 hc         1 VTQ       0.033033
     59 H193         1.9950     2.6420     3.2420 hc         1 VTQ       0.033033
     60 H201         1.5670    -0.5050     3.3230 hc         1 VTQ       0.036700
     61 H202        -0.1830    -0.4900     3.3420 hc         1 VTQ       0.036700
     62 H211        -0.1290     1.4690     4.9290 hc         1 VTQ       0.038700
     63 H212         1.6150     1.3540     4.9760 hc         1 VTQ       0.038700
     64 H221         1.4250    -0.9940     5.8580 hc         1 VTQ       0.036700
     65 H222        -0.3170    -0.8760     5.7560 hc         1 VTQ       0.036700
     66 H23         -0.2110     1.0820     7.3690 hc         1 VTQ       0.044700
     67 H1C1         2.6470     0.0900     7.8140 hc         1 VTQ       0.031367
     68 H1C2         2.2230     1.6370     7.0850 hc         1 VTQ       0.031367
     69 H1C3         1.8310     1.3290     8.7650 hc         1 VTQ       0.031367
     70 H241         0.7880    -1.6260     8.3420 hc         1 VTQ       0.036700
     71 H242        -0.8700    -1.2300     7.9480 hc         1 VTQ       0.036700
     72 H251        -0.8250     0.5580     9.7440 hc         1 VTQ       0.038700
     73 H252         0.7620    -0.0100    10.2160 hc         1 VTQ       0.038700
     74 H261        -0.1740    -2.2800    10.6720 hc         1 VTQ       0.036200
     75 H262        -1.7480    -1.7390    10.1310 hc         1 VTQ       0.036200
     76 H27         -1.8250    -0.0860    11.9860 hc         1 VTQ       0.043700
     77 H281        -2.2450    -1.7570    13.7740 hc         1 VTQ       0.031533
     78 H282        -2.8570    -2.3370    12.2260 hc         1 VTQ       0.031533
     79 H283        -1.3440    -2.9720    12.8680 hc         1 VTQ       0.031533
     80 H291         0.7760    -1.4110    12.8900 hc         1 VTQ       0.031533
     81 H292         0.5850     0.2760    12.4220 hc         1 VTQ       0.031533
     82 H293        -0.1940    -0.3210    13.8790 hc         1 VTQ       0.031533
@<TRIPOS>BOND
     1     1     2 1   
     2     1    33 1   
     3     2     3 1   
     4     2     4 1   
     5     2    17 1   
     6     3    34 1   
     7     3    35 1   
     8     3    36 1   
     9     4     5 1   
    10     4    37 1   
    11     4    38 1   
    12     5     6 1   
    13     5    39 1   
    14     5    40 1   
    15     6     7 2   
    16     6     9 1   
    17     7     8 1   
    18     7    15 1   
    19     8    41 1   
    20     8    42 1   
    21     8    43 1   
    22     9    10 2   
    23     9    11 1   
    24    11    12 1   
    25    11    13 2   
    26    12    44 1   
    27    12    45 1   
    28    12    46 1   
    29    13    14 1   
    30    13    15 1   
    31    14    47 1   
    32    14    48 1   
    33    14    49 1   
    34    15    16 2   
    35    17    18 1   
    36    17    50 1   
    37    17    51 1   
    38    18    19 1   
    39    18    52 1   
    40    18    53 1   
    41    19    20 1   
    42    19    54 1   
    43    19    55 1   
    44    20    21 1   
    45    20    22 1   
    46    20    56 1   
    47    21    57 1   
    48    21    58 1   
    49    21    59 1   
    50    22    23 1   
    51    22    60 1   
    52    22    61 1   
    53    23    24 1   
    54    23    62 1   
    55    23    63 1   
    56    24    25 1   
    57    24    64 1   
    58    24    65 1   
    59    25    26 1   
    60    25    27 1   
    61    25    66 1   
    62    26    67 1   
    63    26    68 1   
    64    26    69 1   
    65    27    28 1   
    66    27    70 1   
    67    27    71 1   
    68    28    29 1   
    69    28    72 1   
    70    28    73 1   
    71    29    30 1   
    72    29    74 1   
    73    29    75 1   
    74    30    31 1   
    75    30    32 1   
    76    30    76 1   
    77    31    77 1   
    78    31    78 1   
    79    31    79 1   
    80    32    80 1   
    81    32    81 1   
    82    32    82 1   
@<TRIPOS>SUBSTRUCTURE
     1 VTQ         1 TEMP              0 ****  ****    0 ROOT
