@<TRIPOS>MOLECULE
VTR
   52    55     1     0     0
SMALL
No Charge or Current Charge


@<TRIPOS>ATOM
      1 C10        -32.8370    22.0230   -35.3280 ca         1 VTR       0.002000
      2 C15        -30.4580    23.9940   -33.7860 c3         1 VTR       0.149800
      3 C17        -28.4820    22.5160   -34.2170 c5         1 VTR       0.161300
      4 C20        -29.5010    22.3420   -32.1490 c5         1 VTR       0.161300
      5 C22        -35.2490    22.1260   -34.9230 ca         1 VTR      -0.040000
      6 C24        -34.1950    20.0130   -35.4210 ca         1 VTR       0.091100
      7 C02        -28.4530    17.1300   -35.2220 ca         1 VTR       0.158600
      8 C03        -29.8570    17.1890   -35.1080 ca         1 VTR      -0.074400
      9 Br04       -30.6540    17.4740   -33.3760 br         1 VTR      -0.052600
     10 C05        -30.6740    17.0120   -36.2530 ca         1 VTR      -0.065600
     11 C07        -32.7420    18.4280   -35.8670 cc         1 VTR      -0.077100
     12 C08        -32.0470    19.6250   -35.8180 cd         1 VTR      -0.144200
     13 C09        -32.9890    20.6480   -35.5160 ca         1 VTR      -0.141800
     14 C11        -33.9860    22.7800   -34.9870 ca         1 VTR      -0.177600
     15 C12        -33.9120    24.2690   -34.7340 c          1 VTR       0.619700
     16 N13        -32.8400    24.8040   -34.0450 ns         1 VTR      -0.509900
     17 C14        -31.8890    24.0690   -33.1920 c3         1 VTR       0.105000
     18 N16        -29.7880    22.6920   -33.5570 n3         1 VTR      -0.728600
     19 C18        -28.1300    21.0810   -33.7540 c5         1 VTR      -0.079900
     20 C19        -28.6900    21.0240   -32.2970 c5         1 VTR      -0.079900
     21 O21        -34.7760    25.0220   -35.1560 o          1 VTR      -0.595100
     22 C23        -35.3610    20.7320   -35.1350 ca         1 VTR      -0.119000
     23 O25        -34.1060    18.6510   -35.6430 os         1 VTR      -0.130200
     24 O26        -32.8720    16.0740   -36.2410 o          1 VTR      -0.451100
     25 C27        -30.0650    16.7680   -37.5070 ca         1 VTR      -0.074400
     26 Br28       -31.1480    16.5510   -39.0850 br         1 VTR      -0.052600
     27 C29        -28.6610    16.7140   -37.6130 ca         1 VTR       0.158600
     28 O30        -28.0540    16.4890   -38.8150 oh         1 VTR      -0.524600
     29 C31        -27.8550    16.8950   -36.4740 ca         1 VTR       0.021100
     30 O32        -26.4850    16.8390   -36.5820 oh         1 VTR      -0.551100
     31 H1         -31.8620    22.4780   -35.4560 ha         1 VTR       0.132000
     32 H2         -29.8590    24.8150   -33.3690 h1         1 VTR       0.039200
     33 H3         -30.5220    24.1740   -34.8670 h1         1 VTR       0.039200
     34 H4         -28.5480    22.5930   -35.3110 h1         1 VTR       0.035700
     35 H5         -27.7450    23.2500   -33.8600 h1         1 VTR       0.035700
     36 H6         -28.8970    23.1220   -31.6640 h1         1 VTR       0.035700
     37 H7         -30.4130    22.1990   -31.5540 h1         1 VTR       0.035700
     38 H8         -36.1440    22.6990   -34.6880 ha         1 VTR       0.131000
     39 H9         -28.2350    17.4080   -33.3360 ho         1 VTR       0.494500
     40 H10        -30.9770    19.7590   -35.9640 ha         1 VTR       0.219000
     41 H11        -32.8440    25.8140   -33.9750 hn         1 VTR       0.312500
     42 H12        -32.2700    23.0560   -33.0130 h1         1 VTR       0.057200
     43 H13        -31.8400    24.5630   -32.2140 h1         1 VTR       0.057200
     44 H15        -28.6240    20.3370   -34.3900 hc         1 VTR       0.046700
     45 H16        -27.0530    20.8850   -33.8020 hc         1 VTR       0.046700
     46 H17        -29.3310    20.1470   -32.1580 hc         1 VTR       0.046700
     47 H18        -27.8930    20.9630   -31.5480 hc         1 VTR       0.046700
     48 H19        -36.3220    20.2300   -35.0700 ha         1 VTR       0.139000
     49 H20        -27.0870    16.4960   -38.6320 ho         1 VTR       0.494500
     50 H21        -26.1170    16.9850   -35.6780 ho         1 VTR       0.497000
     51 C06        -32.1770    17.0800   -36.1430 c          1 VTR       0.623900
     52 O01        -27.6540    17.2920   -34.1200 oh         1 VTR      -0.524600
@<TRIPOS>BOND
     1     1    13 ar  
     2     1    14 ar  
     3     1    31 1   
     4     2    17 1   
     5     2    18 1   
     6     2    32 1   
     7     2    33 1   
     8     3    18 1   
     9     3    19 1   
    10     3    34 1   
    11     3    35 1   
    12     4    18 1   
    13     4    20 1   
    14     4    36 1   
    15     4    37 1   
    16     5    14 ar  
    17     5    22 ar  
    18     5    38 1   
    19     6    13 ar  
    20     6    22 ar  
    21     6    23 1   
    22     7     8 ar  
    23     7    29 ar  
    24     7    52 1   
    25     8     9 1   
    26     8    10 ar  
    27    10    25 ar  
    28    10    51 1   
    29    11    12 2   
    30    11    23 1   
    31    11    51 1   
    32    12    13 1   
    33    12    40 1   
    34    14    15 1   
    35    15    16 1   
    36    15    21 2   
    37    16    17 1   
    38    16    41 1   
    39    17    42 1   
    40    17    43 1   
    41    19    20 1   
    42    19    44 1   
    43    19    45 1   
    44    20    46 1   
    45    20    47 1   
    46    22    48 1   
    47    24    51 2   
    48    25    26 1   
    49    25    27 ar  
    50    27    28 1   
    51    27    29 ar  
    52    28    49 1   
    53    29    30 1   
    54    30    50 1   
    55    39    52 1   
@<TRIPOS>SUBSTRUCTURE
     1 VTR         1 TEMP              0 ****  ****    0 ROOT
