@<TRIPOS>MOLECULE
VTR
   52    55     1     0     0
SMALL
abcg2


@<TRIPOS>ATOM
      1 C10        -32.6620    22.1300   -35.4310 ca         1 VTR       0.002000
      2 C15        -30.5220    24.0480   -33.7460 c3         1 VTR       0.149800
      3 C17        -28.8250    22.3600   -34.1920 c5         1 VTR       0.161300
      4 C20        -29.8260    22.3600   -32.1260 c5         1 VTR       0.161300
      5 C22        -35.0170    22.1290   -34.8610 ca         1 VTR      -0.040000
      6 C24        -33.9340    20.0830   -35.2730 ca         1 VTR       0.091100
      7 C02        -28.2690    16.8210   -35.2990 ca         1 VTR       0.158600
      8 C03        -29.6350    16.9490   -35.0600 ca         1 VTR      -0.074400
      9 BR04       -30.2570    17.0160   -33.2820 br         1 VTR      -0.052600
     10 C05        -30.5410    17.0320   -36.1100 ca         1 VTR      -0.065600
     11 C07        -32.4670    18.5430   -35.6940 cc         1 VTR      -0.077100
     12 C08        -31.7820    19.7110   -35.8010 cd         1 VTR      -0.144200
     13 C09        -32.7280    20.7410   -35.5270 ca         1 VTR      -0.141800
     14 C11        -33.8060    22.8170   -35.0760 ca         1 VTR      -0.177600
     15 C12        -33.8100    24.3110   -34.9790 c          1 VTR       0.619700
     16 N13        -32.8460    24.8830   -34.2320 ns         1 VTR      -0.509900
     17 C14        -31.9730    24.2430   -33.2660 c3         1 VTR       0.105000
     18 N16        -30.0620    22.7000   -33.5160 n3         1 VTR      -0.728600
     19 C18        -28.4620    20.9970   -33.6010 c5         1 VTR      -0.079900
     20 C19        -29.1240    21.0030   -32.2050 c5         1 VTR      -0.079900
     21 O21        -34.6600    24.9650   -35.5680 o          1 VTR      -0.595100
     22 C23        -35.1030    20.7530   -34.9440 ca         1 VTR      -0.119000
     23 O25        -33.7750    18.7530   -35.3840 os         1 VTR      -0.130200
     24 O26        -32.7390    16.2110   -35.7260 o          1 VTR      -0.451100
     25 C27        -30.0730    16.9610   -37.4120 ca         1 VTR      -0.074400
     26 BR28       -31.2710    17.0790   -38.8550 br         1 VTR      -0.052600
     27 C29        -28.7140    16.8290   -37.6840 ca         1 VTR       0.158600
     28 O30        -28.2990    16.7760   -38.9530 oh         1 VTR      -0.524600
     29 C31        -27.8190    16.7610   -36.6180 ca         1 VTR       0.021100
     30 O32        -26.5160    16.6340   -36.9300 oh         1 VTR      -0.551100
     31 H1         -31.7350    22.6430   -35.6430 ha         1 VTR       0.132000
     32 H2         -29.8620    24.7910   -33.2680 h1         1 VTR       0.039200
     33 H3         -30.4760    24.2480   -34.8190 h1         1 VTR       0.039200
     34 H4         -28.9680    22.3370   -35.2750 h1         1 VTR       0.035700
     35 H5         -28.0270    23.0930   -33.9800 h1         1 VTR       0.035700
     36 H6         -29.1710    23.1030   -31.6370 h1         1 VTR       0.035700
     37 H7         -30.7570    22.3260   -31.5560 h1         1 VTR       0.035700
     38 H8         -35.9040    22.6930   -34.6020 ha         1 VTR       0.131000
     39 H9         -27.6230    16.9620   -33.4800 ho         1 VTR       0.494500
     40 H10        -30.7340    19.8250   -36.0310 ha         1 VTR       0.219000
     41 H11        -32.8590    25.8930   -34.2260 hn         1 VTR       0.312500
     42 H12        -32.3970    23.2760   -33.0010 h1         1 VTR       0.057200
     43 H13        -31.9960    24.8490   -32.3590 h1         1 VTR       0.057200
     44 H15        -28.8680    20.1920   -34.2150 hc         1 VTR       0.046700
     45 H16        -27.3830    20.8540   -33.5550 hc         1 VTR       0.046700
     46 H17        -29.8430    20.1880   -32.1150 hc         1 VTR       0.046700
     47 H18        -28.4010    20.8810   -31.3980 hc         1 VTR       0.046700
     48 H19        -36.0320    20.2330   -34.7570 ha         1 VTR       0.139000
     49 H20        -27.3360    16.7150   -39.0000 ho         1 VTR       0.494500
     50 H21        -25.9560    16.7160   -36.1480 ho         1 VTR       0.497000
     51 C06        -32.0110    17.1690   -35.8330 c          1 VTR       0.623900
     52 O01        -27.3120    16.7320   -34.3650 oh         1 VTR      -0.524600
@<TRIPOS>BOND
     1     1    13 ar  
     2     1    14 ar  
     3     1    31 1   
     4     2    17 1   
     5     2    18 1   
     6     2    32 1   
     7     2    33 1   
     8     3    18 1   
     9     3    19 1   
    10     3    34 1   
    11     3    35 1   
    12     4    18 1   
    13     4    20 1   
    14     4    36 1   
    15     4    37 1   
    16     5    14 ar  
    17     5    22 ar  
    18     5    38 1   
    19     6    13 ar  
    20     6    22 ar  
    21     6    23 1   
    22     7     8 ar  
    23     7    29 ar  
    24     7    52 1   
    25     8     9 1   
    26     8    10 ar  
    27    10    25 ar  
    28    10    51 1   
    29    11    12 2   
    30    11    23 1   
    31    11    51 1   
    32    12    13 1   
    33    12    40 1   
    34    14    15 1   
    35    15    16 1   
    36    15    21 2   
    37    16    17 1   
    38    16    41 1   
    39    17    42 1   
    40    17    43 1   
    41    19    20 1   
    42    19    44 1   
    43    19    45 1   
    44    20    46 1   
    45    20    47 1   
    46    22    48 1   
    47    24    51 2   
    48    25    26 1   
    49    25    27 ar  
    50    27    28 1   
    51    27    29 ar  
    52    28    49 1   
    53    29    30 1   
    54    30    50 1   
    55    39    52 1   
@<TRIPOS>SUBSTRUCTURE
     1 VTR         1 TEMP              0 ****  ****    0 ROOT
