@<TRIPOS>MOLECULE
VTT
   18    18     1     0     0
SMALL
abcg2


@<TRIPOS>ATOM
      1 N1          36.0750    18.2050    42.5440 n8         1 VTT      -0.717200
      2 C1          35.2700    13.4950    43.7060 cc         1 VTT      -0.022300
      3 C5          35.6660    15.8490    42.7940 c          1 VTT       0.661700
      4 C4          36.0350    14.6330    43.5530 cd         1 VTT      -0.289600
      5 C3          37.1780    12.9070    44.9170 cd         1 VTT      -0.218000
      6 C2          35.9380    12.5170    44.4970 cc         1 VTT      -0.143000
      7 O           34.8640    15.8090    41.8640 o          1 VTT      -0.558100
      8 N           36.2850    16.9880    43.2050 ns         1 VTT      -0.418300
      9 S           37.5660    14.4790    44.3640 ss         1 VTT       0.186000
     10 H1          35.5900    18.8450    43.1660 hn         1 VTT       0.398500
     11 H2          36.9780    18.6110    42.3190 hn         1 VTT       0.398500
     12 H3          37.8880    12.3520    45.5100 h4         1 VTT       0.153000
     13 H4          35.5020    11.5580    44.7410 ha         1 VTT       0.138000
     14 H5          36.7970    16.9920    44.0760 hn         1 VTT       0.300500
     15 H6          33.9630    12.9700    42.0870 hc         1 VTT       0.054367
     16 H7          33.3940    12.4740    43.6830 hc         1 VTT       0.054367
     17 H8          33.2950    14.1730    43.1750 hc         1 VTT       0.054367
     18 C           33.9010    13.2690    43.1360 c3         1 VTT      -0.033800
@<TRIPOS>BOND
     1     1     8 1   
     2     1    10 1   
     3     1    11 1   
     4     2     4 2   
     5     2     6 1   
     6     2    18 1   
     7     3     4 1   
     8     3     7 2   
     9     3     8 1   
    10     4     9 1   
    11     5     6 2   
    12     5     9 1   
    13     5    12 1   
    14     6    13 1   
    15     8    14 1   
    16    15    18 1   
    17    16    18 1   
    18    17    18 1   
@<TRIPOS>SUBSTRUCTURE
     1 VTT         1 TEMP              0 ****  ****    0 ROOT
