@<TRIPOS>MOLECULE
VTT
   18    18     1     0     0
SMALL
No Charge or Current Charge


@<TRIPOS>ATOM
      1 N1          36.1320    18.3270    42.5330 n8         1 VTT      -0.717200
      2 C1          35.2460    13.4840    43.7150 cc         1 VTT      -0.022300
      3 C5          35.4560    15.9150    42.9740 c          1 VTT       0.661700
      4 C4          35.9110    14.6960    43.6980 cd         1 VTT      -0.289600
      5 C3          37.0940    12.9500    45.0690 cd         1 VTT      -0.218000
      6 C2          35.9310    12.5140    44.4940 cc         1 VTT      -0.143000
      7 O           34.4330    15.9860    42.3050 o          1 VTT      -0.558100
      8 N           36.3210    17.0030    43.1270 ns         1 VTT      -0.418300
      9 S           37.4060    14.6380    44.6590 ss         1 VTT       0.186000
     10 H1          36.0760    19.0620    43.2550 hn         1 VTT       0.398500
     11 H2          36.9180    18.5810    41.9160 hn         1 VTT       0.398500
     12 H3          37.7830    12.4020    45.6990 h4         1 VTT       0.153000
     13 H4          35.5510    11.5030    44.6180 ha         1 VTT       0.138000
     14 H5          37.1440    16.8360    43.7050 hn         1 VTT       0.300500
     15 H6          34.0370    13.2490    41.9420 hc         1 VTT       0.054367
     16 H7          33.6640    12.0870    43.2220 hc         1 VTT       0.054367
     17 H8          33.1320    13.7660    43.3800 hc         1 VTT       0.054367
     18 C           33.9500    13.1270    43.0280 c3         1 VTT      -0.033800
@<TRIPOS>BOND
     1     1     8 1   
     2     1    10 1   
     3     1    11 1   
     4     2     4 2   
     5     2     6 1   
     6     2    18 1   
     7     3     4 1   
     8     3     7 2   
     9     3     8 1   
    10     4     9 1   
    11     5     6 2   
    12     5     9 1   
    13     5    12 1   
    14     6    13 1   
    15     8    14 1   
    16    15    18 1   
    17    16    18 1   
    18    17    18 1   
@<TRIPOS>SUBSTRUCTURE
     1 VTT         1 TEMP              0 ****  ****    0 ROOT
