@<TRIPOS>MOLECULE
VTV
   41    42     1     0     0
SMALL
No Charge or Current Charge


@<TRIPOS>ATOM
      1 C12         50.2460   -29.9170    33.5670 c3         1 VTV      -0.057100
      2 C13         50.4380   -31.4220    33.2740 c3         1 VTV       0.113000
      3 C15         49.1900   -32.9020    34.9330 c          1 VTV       0.598300
      4 C1          53.3120   -28.3520    36.2170 ca         1 VTV       0.108000
      5 C10         51.0790   -29.2690    35.8790 ca         1 VTV      -0.129000
      6 C11         51.3150   -29.3520    34.4940 ca         1 VTV      -0.054300
      7 C14         51.6630   -32.5760    35.1640 c3         1 VTV       0.081300
      8 C16         47.8920   -32.5980    34.2450 ce         1 VTV      -0.300200
      9 C17         46.8170   -33.4250    34.2580 c2         1 VTV      -0.234000
     10 C18         52.5540   -28.9310    33.9760 ca         1 VTV      -0.114000
     11 C19         53.5500   -28.4330    34.8350 ca         1 VTV      -0.085000
     12 C2          52.0700   -28.7610    36.7430 ca         1 VTV       0.112100
     13 C3          50.6350   -28.3430    38.6460 ca         1 VTV       0.125100
     14 C4          50.1990   -28.9900    39.8140 ca         1 VTV      -0.087000
     15 C5          48.9640   -28.6440    40.3980 ca         1 VTV       0.017000
     16 C6          48.5140   -29.3120    41.5890 cg         1 VTV       0.319000
     17 C7          48.1730   -27.6380    39.8080 ca         1 VTV      -0.087000
     18 C8          48.6180   -26.9830    38.6480 ca         1 VTV       0.138000
     19 C9          49.8480   -27.3280    38.0680 ca         1 VTV      -0.135000
     20 N1          48.1480   -29.8470    42.5600 n1         1 VTV      -0.433000
     21 N2          50.3790   -32.2780    34.4850 n          1 VTV      -0.411800
     22 O1          51.8490   -28.6960    38.1030 os         1 VTV      -0.235200
     23 O2          49.2270   -33.7270    35.8360 o          1 VTV      -0.612100
     24 Cl2         47.6330   -25.7220    37.9210 cl         1 VTV      -0.190000
     25 H5          50.2550   -29.3730    32.6150 hc         1 VTV       0.058200
     26 H6          49.2500   -29.7560    33.9960 hc         1 VTV       0.058200
     27 H7          51.4170   -31.5580    32.7960 h1         1 VTV       0.052200
     28 H8          49.6960   -31.7560    32.5390 h1         1 VTV       0.052200
     29 H4          50.1310   -29.6140    36.2850 ha         1 VTV       0.134000
     30 H9          51.9150   -33.6350    35.0310 h1         1 VTV       0.047700
     31 H10         52.4730   -31.9620    34.7500 h1         1 VTV       0.047700
     32 H11         51.5730   -32.3580    36.2360 h1         1 VTV       0.047700
     33 H12         47.8470   -31.6870    33.6540 ha         1 VTV       0.176000
     34 H14         45.9000   -33.1840    33.7170 ha         1 VTV       0.178000
     35 H13         46.8190   -34.3690    34.8070 ha         1 VTV       0.178000
     36 H15         52.7500   -28.9960    32.9070 ha         1 VTV       0.120000
     37 H16         54.5070   -28.1140    34.4300 ha         1 VTV       0.135000
     38 H1          50.8200   -29.7650    40.2590 ha         1 VTV       0.151000
     39 H2          47.2180   -27.3600    40.2480 ha         1 VTV       0.145000
     40 H3          50.1870   -26.8070    37.1770 ha         1 VTV       0.147000
     41 Cl1         54.5780   -27.7270    37.2750 cl         1 VTV      -0.176000
@<TRIPOS>BOND
     1     1     2 1   
     2     1     6 1   
     3     1    25 1   
     4     1    26 1   
     5     2    21 1   
     6     2    27 1   
     7     2    28 1   
     8     3     8 1   
     9     3    21 1   
    10     3    23 2   
    11     4    11 ar  
    12     4    12 ar  
    13     4    41 1   
    14     5     6 ar  
    15     5    12 ar  
    16     5    29 1   
    17     6    10 ar  
    18     7    21 1   
    19     7    30 1   
    20     7    31 1   
    21     7    32 1   
    22     8     9 2   
    23     8    33 1   
    24     9    34 1   
    25     9    35 1   
    26    10    11 ar  
    27    10    36 1   
    28    11    37 1   
    29    12    22 1   
    30    13    14 ar  
    31    13    19 ar  
    32    13    22 1   
    33    14    15 ar  
    34    14    38 1   
    35    15    16 1   
    36    15    17 ar  
    37    16    20 3   
    38    17    18 ar  
    39    17    39 1   
    40    18    19 ar  
    41    18    24 1   
    42    19    40 1   
@<TRIPOS>SUBSTRUCTURE
     1 VTV         1 TEMP              0 ****  ****    0 ROOT
