@<TRIPOS>MOLECULE
VTV
   41    42     1     0     0
SMALL
abcg2


@<TRIPOS>ATOM
      1 C12         50.1670   -29.9310    33.5760 c3         1 VTV      -0.057100
      2 C13         50.4720   -31.3470    33.0610 c3         1 VTV       0.113000
      3 C15         49.6390   -32.9080    34.8220 c          1 VTV       0.598300
      4 C1          53.0940   -28.5560    36.4080 ca         1 VTV       0.108000
      5 C10         50.9060   -29.4290    35.9200 ca         1 VTV      -0.129000
      6 C11         51.1860   -29.4220    34.5590 ca         1 VTV      -0.054300
      7 C14         52.0300   -32.6910    34.4460 c3         1 VTV       0.081300
      8 C16         48.2450   -32.5020    34.4590 ce         1 VTV      -0.300200
      9 C17         47.2120   -32.9000    35.1980 c2         1 VTV      -0.234000
     10 C18         52.4440   -28.9850    34.1350 ca         1 VTV      -0.114000
     11 C19         53.3950   -28.5610    35.0500 ca         1 VTV      -0.085000
     12 C2          51.8450   -28.9850    36.8420 ca         1 VTV       0.112100
     13 C3          50.3970   -28.5140    38.6550 ca         1 VTV       0.125100
     14 C4          49.7960   -29.1700    39.7180 ca         1 VTV      -0.087000
     15 C5          48.6140   -28.6500    40.2440 ca         1 VTV       0.017000
     16 C6          47.9860   -29.3200    41.3400 cg         1 VTV       0.319000
     17 C7          48.0290   -27.4940    39.7180 ca         1 VTV      -0.087000
     18 C8          48.6670   -26.8620    38.6620 ca         1 VTV       0.138000
     19 C9          49.8460   -27.3510    38.1210 ca         1 VTV      -0.135000
     20 N1          47.5090   -29.8720    42.2300 n1         1 VTV      -0.433000
     21 N2          50.6520   -32.3420    34.1220 n          1 VTV      -0.411800
     22 O1          51.5860   -29.0200    38.1970 os         1 VTV      -0.235200
     23 O2          49.8450   -33.7220    35.7350 o          1 VTV      -0.612100
     24 CL2         47.9730   -25.4060    37.9970 cl         1 VTV      -0.190000
     25 H5          50.1220   -29.2700    32.7070 hc         1 VTV       0.058200
     26 H6          49.1820   -29.9220    34.0460 hc         1 VTV       0.058200
     27 H7          51.3990   -31.3330    32.4870 h1         1 VTV       0.052200
     28 H8          49.6890   -31.6600    32.3730 h1         1 VTV       0.052200
     29 H4          49.9420   -29.7720    36.2730 ha         1 VTV       0.134000
     30 H9          52.0370   -33.5140    35.1500 h1         1 VTV       0.047700
     31 H10         52.5490   -32.9810    33.5320 h1         1 VTV       0.047700
     32 H11         52.5520   -31.8400    34.8860 h1         1 VTV       0.047700
     33 H12         48.0790   -31.8700    33.5960 ha         1 VTV       0.176000
     34 H14         46.1980   -32.6080    34.9540 ha         1 VTV       0.178000
     35 H13         47.3590   -33.5470    36.0510 ha         1 VTV       0.178000
     36 H15         52.6860   -28.9810    33.0790 ha         1 VTV       0.120000
     37 H16         54.3670   -28.2220    34.7210 ha         1 VTV       0.135000
     38 H1          50.2400   -30.0700    40.1210 ha         1 VTV       0.151000
     39 H2          47.1120   -27.1000    40.1300 ha         1 VTV       0.145000
     40 H3          50.3290   -26.8420    37.2980 ha         1 VTV       0.147000
     41 CL1         54.2720   -27.9950    37.5610 cl         1 VTV      -0.176000
@<TRIPOS>BOND
     1     1     2 1   
     2     1     6 1   
     3     1    25 1   
     4     1    26 1   
     5     2    21 1   
     6     2    27 1   
     7     2    28 1   
     8     3     8 1   
     9     3    21 1   
    10     3    23 2   
    11     4    11 ar  
    12     4    12 ar  
    13     4    41 1   
    14     5     6 ar  
    15     5    12 ar  
    16     5    29 1   
    17     6    10 ar  
    18     7    21 1   
    19     7    30 1   
    20     7    31 1   
    21     7    32 1   
    22     8     9 2   
    23     8    33 1   
    24     9    34 1   
    25     9    35 1   
    26    10    11 ar  
    27    10    36 1   
    28    11    37 1   
    29    12    22 1   
    30    13    14 ar  
    31    13    19 ar  
    32    13    22 1   
    33    14    15 ar  
    34    14    38 1   
    35    15    16 1   
    36    15    17 ar  
    37    16    20 3   
    38    17    18 ar  
    39    17    39 1   
    40    18    19 ar  
    41    18    24 1   
    42    19    40 1   
@<TRIPOS>SUBSTRUCTURE
     1 VTV         1 TEMP              0 ****  ****    0 ROOT
