@<TRIPOS>MOLECULE
VTW
   20    21     1     0     0
SMALL
abcg2


@<TRIPOS>ATOM
      1 C7          54.7370    14.5320    46.3310 cc         1 VTW      -0.273000
      2 C8          54.0650    13.3920    46.6330 cd         1 VTW       0.161500
      3 C9          52.7040    13.1430    47.2550 c          1 VTW       0.620500
      4 O1          52.0580    14.1790    47.5340 o          1 VTW      -0.685500
      5 C1          57.9790    17.0560    44.6160 ca         1 VTW      -0.125000
      6 C5          59.3910    15.1080    44.5560 ca         1 VTW      -0.125000
      7 C6          55.9750    14.0920    45.7830 cc         1 VTW       0.300500
      8 C4          58.3420    14.3290    45.0240 ca         1 VTW      -0.090000
      9 C3          57.0950    14.9070    45.2920 ca         1 VTW      -0.100500
     10 C2          56.9270    16.2790    45.0850 ca         1 VTW      -0.090000
     11 O2          52.3740    11.9490    47.4230 o          1 VTW      -0.685500
     12 O           54.8260    12.3280    46.2950 os         1 VTW      -0.057700
     13 N           56.0290    12.7750    45.7580 nd         1 VTW      -0.425300
     14 C           59.2140    16.4740    44.3490 ca         1 VTW      -0.123000
     15 H1          54.3970    15.5400    46.4880 ha         1 VTW       0.146000
     16 H5          58.4860    13.2710    45.1900 ha         1 VTW       0.126500
     17 H6          55.9690    16.7420    45.2830 ha         1 VTW       0.126500
     18 H7          60.0340    17.0790    43.9840 ha         1 VTW       0.098000
     19 H3          57.8320    18.1170    44.4570 ha         1 VTW       0.101500
     20 H4          60.3500    14.6490    44.3540 ha         1 VTW       0.101500
@<TRIPOS>BOND
     1     1     2 2   
     2     1     7 1   
     3     1    15 1   
     4     2     3 1   
     5     2    12 1   
     6     3     4 1   
     7     3    11 1   
     8     5    10 ar  
     9     5    14 ar  
    10     5    19 1   
    11     6     8 ar  
    12     6    14 ar  
    13     6    20 1   
    14     7     9 1   
    15     7    13 2   
    16     8     9 ar  
    17     8    16 1   
    18     9    10 ar  
    19    10    17 1   
    20    12    13 1   
    21    14    18 1   
@<TRIPOS>SUBSTRUCTURE
     1 VTW         1 TEMP              0 ****  ****    0 ROOT
