@<TRIPOS>MOLECULE
VTW
   20    21     1     0     0
SMALL
No Charge or Current Charge


@<TRIPOS>ATOM
      1 C7          54.7490    14.4520    46.2540 cc         1 VTW      -0.273000
      2 C8          54.0810    13.3360    46.6540 cd         1 VTW       0.161500
      3 C9          52.6780    13.2350    47.1840 c          1 VTW       0.620500
      4 O1          52.0090    14.2570    47.2870 o          1 VTW      -0.685500
      5 C1          57.9640    17.0790    44.7070 ca         1 VTW      -0.125000
      6 C5          59.3830    15.1270    44.4570 ca         1 VTW      -0.125000
      7 C6          56.0240    14.0050    45.8470 cc         1 VTW       0.300500
      8 C4          58.3490    14.3120    44.9500 ca         1 VTW      -0.090000
      9 C3          57.1040    14.8680    45.3300 ca         1 VTW      -0.100500
     10 C2          56.9280    16.2660    45.2000 ca         1 VTW      -0.090000
     11 O2          52.2410    12.1340    47.4980 o          1 VTW      -0.685500
     12 O           54.8940    12.2430    46.5080 os         1 VTW      -0.057700
     13 N           56.1600    12.6900    45.9800 nd         1 VTW      -0.425300
     14 C           59.1910    16.5110    44.3350 ca         1 VTW      -0.123000
     15 H1          54.3750    15.4670    46.2500 ha         1 VTW       0.146000
     16 H5          58.5260    13.2420    45.0350 ha         1 VTW       0.126500
     17 H6          55.9910    16.7400    45.4790 ha         1 VTW       0.126500
     18 H7          59.9920    17.1410    43.9530 ha         1 VTW       0.098000
     19 H3          57.8130    18.1520    44.6130 ha         1 VTW       0.101500
     20 H4          60.3330    14.6830    44.1700 ha         1 VTW       0.101500
@<TRIPOS>BOND
     1     1     2 2   
     2     1     7 1   
     3     1    15 1   
     4     2     3 1   
     5     2    12 1   
     6     3     4 1   
     7     3    11 1   
     8     5    10 ar  
     9     5    14 ar  
    10     5    19 1   
    11     6     8 ar  
    12     6    14 ar  
    13     6    20 1   
    14     7     9 1   
    15     7    13 2   
    16     8     9 ar  
    17     8    16 1   
    18     9    10 ar  
    19    10    17 1   
    20    12    13 1   
    21    14    18 1   
@<TRIPOS>SUBSTRUCTURE
     1 VTW         1 TEMP              0 ****  ****    0 ROOT
