@<TRIPOS>MOLECULE
VTX
   43    45     1     0     0
SMALL
No Charge or Current Charge


@<TRIPOS>ATOM
      1 C01        104.5940   149.4240   154.8980 c3         1 VTX      -0.050800
      2 C02        105.8470   149.1970   155.7300 ca         1 VTX      -0.048300
      3 C03        105.7920   149.2760   157.1320 ca         1 VTX      -0.131000
      4 C04        106.9500   149.0620   157.8980 ca         1 VTX      -0.058000
      5 C05        108.1720   148.7620   157.2700 ca         1 VTX      -0.164000
      6 C07        109.8460   146.7120   158.0960 ca         1 VTX      -0.108000
      7 C08        108.7210   145.8650   157.9940 ca         1 VTX      -0.106000
      8 C09        108.8850   144.4810   157.8200 ca         1 VTX      -0.115000
      9 C10        110.1730   143.9300   157.7520 ca         1 VTX      -0.104000
     10 C11        111.2960   144.7650   157.8640 ca         1 VTX      -0.143000
     11 C12        111.1470   146.1520   158.0400 ca         1 VTX       0.276000
     12 C14        112.7420   147.4830   159.4840 c6         1 VTX       0.198300
     13 C15        113.3260   148.9350   159.3840 c6         1 VTX       0.155800
     14 C17        114.3290   148.1710   157.2240 c6         1 VTX       0.155800
     15 C18        112.8810   147.6330   156.9590 c6         1 VTX       0.198300
     16 C19        108.2400   148.6870   155.8600 ca         1 VTX      -0.019300
     17 C20        109.5520   148.3860   155.1420 c3         1 VTX      -0.056800
     18 C21        107.0720   148.9030   155.1020 ca         1 VTX      -0.130000
     19 N13        112.3110   146.9390   158.1560 nh         1 VTX      -0.781400
     20 N16        114.4550   149.0770   158.4110 n7         1 VTX      -0.843400
     21 S06        109.6160   148.4860   158.3020 ss         1 VTX       0.089000
     22 H1         104.0820   148.4760   154.6980 hc         1 VTX       0.044033
     23 H2         103.8870   150.0860   155.4120 hc         1 VTX       0.044033
     24 H3         104.8340   149.8860   153.9330 hc         1 VTX       0.044033
     25 H4         104.8530   149.5010   157.6310 ha         1 VTX       0.113000
     26 H5         106.8950   149.1230   158.9830 ha         1 VTX       0.123000
     27 H6         107.7160   146.2740   158.0500 ha         1 VTX       0.124000
     28 H7         108.0120   143.8370   157.7390 ha         1 VTX       0.112000
     29 H8         110.3010   142.8580   157.6170 ha         1 VTX       0.111000
     30 H9         112.2930   144.3360   157.8160 ha         1 VTX       0.111000
     31 H11        113.5020   146.8200   159.9220 h1         1 VTX       0.037450
     32 H12        113.6510   149.2770   160.3770 h1         1 VTX       0.032950
     33 H13        112.5120   149.6030   159.0670 h1         1 VTX       0.032950
     34 H14        114.9830   147.3020   157.3860 h1         1 VTX       0.032950
     35 H15        114.7040   148.6890   156.3290 h1         1 VTX       0.032950
     36 H16        112.2370   148.4770   156.6750 h1         1 VTX       0.037450
     37 H17        112.9140   146.9410   156.1050 h1         1 VTX       0.037450
     38 H18        110.3290   149.1040   155.4270 hc         1 VTX       0.052367
     39 H19        109.9130   147.3790   155.3790 hc         1 VTX       0.052367
     40 H20        109.4420   148.4430   154.0530 hc         1 VTX       0.052367
     41 H21        107.1130   148.8430   154.0170 ha         1 VTX       0.111000
     42 H22        115.3350   148.8410   158.8860 hn         1 VTX       0.409000
     43 H10        111.8900   147.4970   160.1790 h1         1 VTX       0.037450
@<TRIPOS>BOND
     1     1     2 1   
     2     1    22 1   
     3     1    23 1   
     4     1    24 1   
     5     2     3 ar  
     6     2    18 ar  
     7     3     4 ar  
     8     3    25 1   
     9     4     5 ar  
    10     4    26 1   
    11     5    16 ar  
    12     5    21 1   
    13     6     7 ar  
    14     6    11 ar  
    15     6    21 1   
    16     7     8 ar  
    17     7    27 1   
    18     8     9 ar  
    19     8    28 1   
    20     9    10 ar  
    21     9    29 1   
    22    10    11 ar  
    23    10    30 1   
    24    11    19 1   
    25    12    13 1   
    26    12    19 1   
    27    12    31 1   
    28    12    43 1   
    29    13    20 1   
    30    13    32 1   
    31    13    33 1   
    32    14    15 1   
    33    14    20 1   
    34    14    34 1   
    35    14    35 1   
    36    15    19 1   
    37    15    36 1   
    38    15    37 1   
    39    16    17 1   
    40    16    18 ar  
    41    17    38 1   
    42    17    39 1   
    43    17    40 1   
    44    18    41 1   
    45    20    42 1   
@<TRIPOS>SUBSTRUCTURE
     1 VTX         1 TEMP              0 ****  ****    0 ROOT
