@<TRIPOS>MOLECULE
VTX
   43    45     1     0     0
SMALL
abcg2


@<TRIPOS>ATOM
      1 C01        104.2320   149.6130   155.6190 c3         1 VTX      -0.050800
      2 C02        105.6350   149.3400   156.0750 ca         1 VTX      -0.048300
      3 C03        105.9940   149.4510   157.4130 ca         1 VTX      -0.131000
      4 C04        107.2920   149.1720   157.8150 ca         1 VTX      -0.058000
      5 C05        108.2520   148.7860   156.8880 ca         1 VTX      -0.164000
      6 C07        110.0510   146.7590   157.4780 ca         1 VTX      -0.108000
      7 C08        108.9900   145.9030   157.2150 ca         1 VTX      -0.106000
      8 C09        109.1930   144.5300   157.1650 ca         1 VTX      -0.115000
      9 C10        110.4590   144.0110   157.3840 ca         1 VTX      -0.104000
     10 C11        111.5140   144.8630   157.6850 ca         1 VTX      -0.143000
     11 C12        111.3310   146.2430   157.7490 ca         1 VTX       0.276000
     12 C14        112.3550   147.7320   159.3830 c6         1 VTX       0.198300
     13 C15        113.0290   149.1070   159.3370 c6         1 VTX       0.155800
     14 C17        114.6920   147.8620   158.1490 c6         1 VTX       0.155800
     15 C18        113.7080   146.8110   157.6200 c6         1 VTX       0.198300
     16 C19        107.9220   148.6800   155.5300 ca         1 VTX      -0.019300
     17 C20        108.9310   148.2730   154.5000 c3         1 VTX      -0.056800
     18 C21        106.6110   148.9540   155.1570 ca         1 VTX      -0.130000
     19 N13        112.3600   147.1480   158.0490 nh         1 VTX      -0.781400
     20 N16        114.0140   149.1360   158.2630 n7         1 VTX      -0.843400
     21 S06        109.9110   148.5260   157.4510 ss         1 VTX       0.089000
     22 H1         103.7260   148.6860   155.3400 hc         1 VTX       0.044033
     23 H2         103.6420   150.0890   156.4000 hc         1 VTX       0.044033
     24 H3         104.2180   150.2600   154.7410 hc         1 VTX       0.044033
     25 H4         105.2580   149.7550   158.1480 ha         1 VTX       0.113000
     26 H5         107.5620   149.2550   158.8600 ha         1 VTX       0.123000
     27 H6         108.0020   146.3030   157.0230 ha         1 VTX       0.124000
     28 H7         108.3610   143.8760   156.9420 ha         1 VTX       0.112000
     29 H8         110.6290   142.9430   157.3370 ha         1 VTX       0.111000
     30 H9         112.4920   144.4410   157.8740 ha         1 VTX       0.111000
     31 H11        112.8670   147.0700   160.0960 h1         1 VTX       0.037450
     32 H12        113.4640   149.3070   160.3260 h1         1 VTX       0.032950
     33 H13        112.2810   149.8820   159.1530 h1         1 VTX       0.032950
     34 H14        115.1260   147.5200   159.1010 h1         1 VTX       0.032950
     35 H15        115.5240   147.9530   157.4490 h1         1 VTX       0.032950
     36 H16        113.7240   146.7820   156.5280 h1         1 VTX       0.037450
     37 H17        114.0420   145.8270   157.9770 h1         1 VTX       0.037450
     38 H18        109.8110   148.9170   154.5260 hc         1 VTX       0.052367
     39 H19        109.2800   147.2520   154.6670 hc         1 VTX       0.052367
     40 H20        108.5070   148.3190   153.4990 hc         1 VTX       0.052367
     41 H21        106.3400   148.8710   154.1090 ha         1 VTX       0.111000
     42 H22        114.6830   149.8750   158.4300 hn         1 VTX       0.409000
     43 H10        111.3330   147.8360   159.7460 h1         1 VTX       0.037450
@<TRIPOS>BOND
     1     1     2 1   
     2     1    22 1   
     3     1    23 1   
     4     1    24 1   
     5     2     3 ar  
     6     2    18 ar  
     7     3     4 ar  
     8     3    25 1   
     9     4     5 ar  
    10     4    26 1   
    11     5    16 ar  
    12     5    21 1   
    13     6     7 ar  
    14     6    11 ar  
    15     6    21 1   
    16     7     8 ar  
    17     7    27 1   
    18     8     9 ar  
    19     8    28 1   
    20     9    10 ar  
    21     9    29 1   
    22    10    11 ar  
    23    10    30 1   
    24    11    19 1   
    25    12    13 1   
    26    12    19 1   
    27    12    31 1   
    28    12    43 1   
    29    13    20 1   
    30    13    32 1   
    31    13    33 1   
    32    14    15 1   
    33    14    20 1   
    34    14    34 1   
    35    14    35 1   
    36    15    19 1   
    37    15    36 1   
    38    15    37 1   
    39    16    17 1   
    40    16    18 ar  
    41    17    38 1   
    42    17    39 1   
    43    17    40 1   
    44    18    41 1   
    45    20    42 1   
@<TRIPOS>SUBSTRUCTURE
     1 VTX         1 TEMP              0 ****  ****    0 ROOT
