@<TRIPOS>MOLECULE
VTY
   14    14     1     0     0
SMALL
No Charge or Current Charge


@<TRIPOS>ATOM
      1 C01         22.3290    11.7020     9.1010 c3         1 VTY      -0.034900
      2 C02         21.4100    11.6350     7.8940 ce         1 VTY      -0.170400
      3 C03         21.6580    12.1080     6.6690 c2         1 VTY      -0.217200
      4 C04         20.4590    11.7610     5.8110 c5         1 VTY       0.414500
      5 C06         20.1130    10.9350     7.9270 c          1 VTY       0.653300
      6 O05         19.5710    11.0170     6.6750 os         1 VTY      -0.458100
      7 O07         19.5960    10.3750     8.8830 o          1 VTY      -0.476000
      8 O08         20.8530    10.9180     4.7530 oh         1 VTY      -0.632000
      9 H012        22.0420    12.5220     9.7700 hc         1 VTY       0.056367
     10 H013        22.2980    10.7720     9.6820 hc         1 VTY       0.056367
     11 H011        23.3710    11.8660     8.8020 hc         1 VTY       0.056367
     12 H031        22.5510    12.6440     6.3450 ha         1 VTY       0.216000
     13 H041        19.9420    12.6490     5.4210 h2         1 VTY       0.069700
     14 H081        20.0140    10.5620     4.3900 ho         1 VTY       0.466000
@<TRIPOS>BOND
     1     1     2 1   
     2     1     9 1   
     3     1    10 1   
     4     1    11 1   
     5     2     3 2   
     6     2     5 1   
     7     3     4 1   
     8     3    12 1   
     9     4     6 1   
    10     4     8 1   
    11     4    13 1   
    12     5     6 1   
    13     5     7 2   
    14     8    14 1   
@<TRIPOS>SUBSTRUCTURE
     1 VTY         1 TEMP              0 ****  ****    0 ROOT
