@<TRIPOS>MOLECULE
VTY
   14    14     1     0     0
SMALL
bcc


@<TRIPOS>ATOM
      1 C01         22.3380    11.7150     9.1100 c3         1 VTY      -0.034900
      2 C02         21.4630    11.6150     7.9170 ce         1 VTY      -0.170400
      3 C03         21.6590    11.9910     6.6590 c2         1 VTY      -0.167200
      4 C04         20.4570    11.6650     5.8280 c5         1 VTY       0.368100
      5 C06         20.1110    11.0100     7.9810 c          1 VTY       0.728800
      6 O05         19.5550    11.0540     6.7620 os         1 VTY      -0.434900
      7 O07         19.5450    10.5460     8.9330 o          1 VTY      -0.551500
      8 O08         20.7880    10.7970     4.8190 oh         1 VTY      -0.569800
      9 H012        21.8570    12.2970     9.8970 hc         1 VTY       0.056367
     10 H013        22.5470    10.7270     9.5240 hc         1 VTY       0.056367
     11 H011        23.2850    12.1900     8.8620 hc         1 VTY       0.056367
     12 H031        22.5330    12.4710     6.2430 ha         1 VTY       0.166000
     13 H041        19.9590    12.5670     5.4550 h2         1 VTY       0.069700
     14 H081        20.1110    10.8210     4.1330 ho         1 VTY       0.427000
@<TRIPOS>BOND
     1     1     2 1   
     2     1     9 1   
     3     1    10 1   
     4     1    11 1   
     5     2     3 2   
     6     2     5 1   
     7     3     4 1   
     8     3    12 1   
     9     4     6 1   
    10     4     8 1   
    11     4    13 1   
    12     5     6 1   
    13     5     7 2   
    14     8    14 1   
@<TRIPOS>SUBSTRUCTURE
     1 VTY         1 TEMP              0 ****  ****    0 ROOT
