@<TRIPOS>MOLECULE
VU1
   32    33     1     0     0
SMALL
No Charge or Current Charge


@<TRIPOS>ATOM
      1 C10          2.1170   -15.8350    -1.7830 c6         1 VU1      -0.075900
      2 C11          1.9600   -14.3040    -1.6330 c6         1 VU1      -0.074400
      3 C12          1.5580   -13.6770    -2.9880 c6         1 VU1      -0.075900
      4 C13          0.3020   -14.3700    -3.5730 c6         1 VU1       0.168300
      5 OH          -0.9390   -14.9990   -10.7370 o          1 VU1      -0.721500
      6 C01         -1.4450   -15.1530    -8.4310 ca         1 VU1      -0.127600
      7 C02         -2.3180   -14.8120    -7.3700 ca         1 VU1      -0.095000
      8 C03         -2.0640   -15.2510    -6.0590 ca         1 VU1      -0.129000
      9 C04         -0.9320   -16.0380    -5.7760 ca         1 VU1      -0.128300
     10 C05         -0.0590   -16.3830    -6.8240 ca         1 VU1      -0.129000
     11 C06         -0.3110   -15.9460    -8.1360 ca         1 VU1      -0.095000
     12 C09          0.8430   -16.4660    -2.4000 c6         1 VU1       0.168300
     13 N01          0.4950   -15.8430    -3.7070 n3         1 VU1      -0.712600
     14 H1           2.3210   -16.2890    -0.8050 hc         1 VU1       0.041700
     15 H2           2.9830   -16.0590    -2.4210 hc         1 VU1       0.041700
     16 H3           2.8980   -13.8610    -1.2730 hc         1 VU1       0.029200
     17 H4           1.1930   -14.0820    -0.8790 hc         1 VU1       0.029200
     18 H5           2.3900   -13.7660    -3.7000 hc         1 VU1       0.041700
     19 H6           1.3660   -12.6030    -2.8620 hc         1 VU1       0.041700
     20 H7           0.0860   -13.9170    -4.5510 h1         1 VU1       0.029200
     21 H8          -0.5600   -14.1590    -2.9220 h1         1 VU1       0.029200
     22 H10         -3.2000   -14.2030    -7.5590 ha         1 VU1       0.124500
     23 H11         -2.7480   -14.9750    -5.2600 ha         1 VU1       0.088000
     24 H12          0.8190   -16.9900    -6.6180 ha         1 VU1       0.088000
     25 H13          0.3830   -16.2270    -8.9260 ha         1 VU1       0.124500
     26 H14         -1.5590   -16.3770    -3.7420 h1         1 VU1       0.021700
     27 H15         -0.4700   -17.6000    -4.3940 h1         1 VU1       0.021700
     28 H16          0.0090   -16.3520    -1.6920 h1         1 VU1       0.029200
     29 H17          1.0140   -17.5450    -2.5260 h1         1 VU1       0.029200
     30 O1          -2.7110   -13.9940   -10.0600 o          1 VU1      -0.721500
     31 C07         -0.6560   -16.5180    -4.3520 c3         1 VU1       0.225100
     32 CH          -1.7190   -14.6790    -9.8510 c          1 VU1       0.713600
@<TRIPOS>BOND
     1     1     2 1   
     2     1    12 1   
     3     1    14 1   
     4     1    15 1   
     5     2     3 1   
     6     2    16 1   
     7     2    17 1   
     8     3     4 1   
     9     3    18 1   
    10     3    19 1   
    11     4    13 1   
    12     4    20 1   
    13     4    21 1   
    14     5    32 1   
    15     6     7 ar  
    16     6    11 ar  
    17     6    32 1   
    18     7     8 ar  
    19     7    22 1   
    20     8     9 ar  
    21     8    23 1   
    22     9    10 ar  
    23     9    31 1   
    24    10    11 ar  
    25    10    24 1   
    26    11    25 1   
    27    12    13 1   
    28    12    28 1   
    29    12    29 1   
    30    13    31 1   
    31    26    31 1   
    32    27    31 1   
    33    30    32 1   
@<TRIPOS>SUBSTRUCTURE
     1 VU1         1 TEMP              0 ****  ****    0 ROOT
