@<TRIPOS>MOLECULE
VU1
   32    33     1     0     0
SMALL
bcc


@<TRIPOS>ATOM
      1 C10          2.1250   -15.9130    -1.9290 c6         1 VU1      -0.075900
      2 C11          2.0550   -14.4050    -1.7220 c6         1 VU1      -0.074400
      3 C12          1.6000   -13.7300    -3.0100 c6         1 VU1      -0.075900
      4 C13          0.3000   -14.3430    -3.5100 c6         1 VU1       0.168300
      5 OH          -0.7640   -15.1420   -10.6660 o          1 VU1      -0.826800
      6 C01         -1.4100   -15.1880    -8.3940 ca         1 VU1      -0.127600
      7 C02         -2.3960   -14.9890    -7.4330 ca         1 VU1      -0.113000
      8 C03         -2.1910   -15.3570    -6.1080 ca         1 VU1      -0.147000
      9 C04         -0.9900   -15.9260    -5.7030 ca         1 VU1      -0.128300
     10 C05          0.0050   -16.1160    -6.6610 ca         1 VU1      -0.147000
     11 C06         -0.2060   -15.7620    -7.9830 ca         1 VU1      -0.113000
     12 C09          0.8040   -16.4420    -2.4660 c6         1 VU1       0.168300
     13 N01          0.4340   -15.7770    -3.7040 n3         1 VU1      -0.712600
     14 H1           2.3680   -16.4250    -0.9960 hc         1 VU1       0.041700
     15 H2           2.9210   -16.1500    -2.6420 hc         1 VU1       0.041700
     16 H3           3.0200   -14.0110    -1.3960 hc         1 VU1       0.029200
     17 H4           1.3370   -14.1840    -0.9250 hc         1 VU1       0.029200
     18 H5           2.3690   -13.8520    -3.7780 hc         1 VU1       0.041700
     19 H6           1.4610   -12.6570    -2.8620 hc         1 VU1       0.041700
     20 H7           0.0160   -13.8810    -4.4580 h1         1 VU1       0.029200
     21 H8          -0.5100   -14.1170    -2.7920 h1         1 VU1       0.029200
     22 H10         -3.3380   -14.5410    -7.7210 ha         1 VU1       0.142500
     23 H11         -2.9770   -15.1930    -5.3790 ha         1 VU1       0.106000
     24 H12          0.9530   -16.5510    -6.3640 ha         1 VU1       0.106000
     25 H13          0.5760   -15.9300    -8.7120 ha         1 VU1       0.142500
     26 H14         -1.6640   -16.1130    -3.6780 h1         1 VU1       0.021700
     27 H15         -0.6620   -17.4410    -4.2450 h1         1 VU1       0.021700
     28 H16          0.0240   -16.3130    -1.6930 h1         1 VU1       0.029200
     29 H17          0.8810   -17.5150    -2.6580 h1         1 VU1       0.029200
     30 O1          -2.6870   -14.1640   -10.0970 o          1 VU1      -0.826800
     31 C07         -0.7670   -16.3520    -4.2760 c3         1 VU1       0.225100
     32 CH          -1.6410   -14.7940    -9.8510 c          1 VU1       0.924200
@<TRIPOS>BOND
     1     1     2 1   
     2     1    12 1   
     3     1    14 1   
     4     1    15 1   
     5     2     3 1   
     6     2    16 1   
     7     2    17 1   
     8     3     4 1   
     9     3    18 1   
    10     3    19 1   
    11     4    13 1   
    12     4    20 1   
    13     4    21 1   
    14     5    32 1   
    15     6     7 ar  
    16     6    11 ar  
    17     6    32 1   
    18     7     8 ar  
    19     7    22 1   
    20     8     9 ar  
    21     8    23 1   
    22     9    10 ar  
    23     9    31 1   
    24    10    11 ar  
    25    10    24 1   
    26    11    25 1   
    27    12    13 1   
    28    12    28 1   
    29    12    29 1   
    30    13    31 1   
    31    26    31 1   
    32    27    31 1   
    33    30    32 1   
@<TRIPOS>SUBSTRUCTURE
     1 VU1         1 TEMP              0 ****  ****    0 ROOT
