@<TRIPOS>MOLECULE
VU2
   34    35     1     0     0
SMALL
No Charge or Current Charge


@<TRIPOS>ATOM
      1 C1           2.4150    -2.3040     0.4990 c3         1 VU2       0.129800
      2 C2           4.8320     2.2390     0.5500 ca         1 VU2      -0.106000
      3 C3           4.7380     1.7480    -0.7630 ca         1 VU2      -0.114000
      4 C7           4.0450     1.6740     1.5660 ca         1 VU2      -0.114000
      5 C9          -0.3000    -1.4200    -0.5730 c3         1 VU2       0.220900
      6 C10         -1.6120    -0.6580    -0.4410 ca         1 VU2      -0.089300
      7 C11         -2.0970     0.1130    -1.5170 ca         1 VU2      -0.082500
      8 C12         -3.3090     0.8170    -1.3940 ca         1 VU2      -0.111000
      9 C13         -4.0390     0.7530    -0.1960 ca         1 VU2       0.124000
     10 C14         -3.5600    -0.0120     0.8800 ca         1 VU2      -0.111000
     11 C15         -2.3490    -0.7160     0.7590 ca         1 VU2      -0.082500
     12 N2           2.0130    -3.6030    -0.1170 n8         1 VU2      -1.001200
     13 C4           3.8580     0.6920    -1.0600 ca         1 VU2      -0.094000
     14 C5           3.0670     0.1160    -0.0440 ca         1 VU2      -0.101300
     15 C6           3.1650     0.6180     1.2710 ca         1 VU2      -0.094000
     16 O1           0.7680    -0.5580    -0.1380 os         1 VU2      -0.449000
     17 Cl          -5.5540     1.6340    -0.0430 cl         1 VU2      -0.212000
     18 C8           2.1140    -1.0350    -0.3720 c3         1 VU2       0.227600
     19 H11C         1.9180    -2.2030     1.4740 h1         1 VU2       0.042200
     20 H12C         3.4970    -2.3500     0.6840 h1         1 VU2       0.042200
     21 H21N         2.5660    -3.7600    -0.9680 hn         1 VU2       0.394000
     22 H22N         2.3010    -4.3720     0.5000 hn         1 VU2       0.394000
     23 H8           2.2460    -1.2960    -1.4310 h1         1 VU2       0.037700
     24 H3           5.3460     2.1870    -1.5520 ha         1 VU2       0.112500
     25 H7           4.1140     2.0550     2.5830 ha         1 VU2       0.112500
     26 H4           3.7940     0.3220    -2.0810 ha         1 VU2       0.118000
     27 H6           2.5550     0.1920     2.0650 ha         1 VU2       0.118000
     28 H91C        -0.3510    -2.3280     0.0400 h1         1 VU2       0.033200
     29 H92C        -0.1560    -1.7200    -1.6200 h1         1 VU2       0.033200
     30 H11         -1.5340     0.1690    -2.4460 ha         1 VU2       0.128000
     31 H15         -1.9810    -1.3040     1.5970 ha         1 VU2       0.128000
     32 H12         -3.6810     1.4110    -2.2250 ha         1 VU2       0.127000
     33 H14         -4.1270    -0.0580     1.8070 ha         1 VU2       0.127000
     34 H2           5.5130     3.0560     0.7780 ha         1 VU2       0.112000
@<TRIPOS>BOND
     1     1    12 1   
     2     1    18 1   
     3     1    19 1   
     4     1    20 1   
     5     2     3 ar  
     6     2     4 ar  
     7     2    34 1   
     8     3    13 ar  
     9     3    24 1   
    10     4    15 ar  
    11     4    25 1   
    12     5     6 1   
    13     5    16 1   
    14     5    28 1   
    15     5    29 1   
    16     6     7 ar  
    17     6    11 ar  
    18     7     8 ar  
    19     7    30 1   
    20     8     9 ar  
    21     8    32 1   
    22     9    10 ar  
    23     9    17 1   
    24    10    11 ar  
    25    10    33 1   
    26    11    31 1   
    27    12    21 1   
    28    12    22 1   
    29    13    14 ar  
    30    13    26 1   
    31    14    15 ar  
    32    14    18 1   
    33    15    27 1   
    34    16    18 1   
    35    18    23 1   
@<TRIPOS>SUBSTRUCTURE
     1 VU2         1 TEMP              0 ****  ****    0 ROOT
