@<TRIPOS>MOLECULE
VU2
   34    35     1     0     0
SMALL
bcc


@<TRIPOS>ATOM
      1 C1           2.1480    -1.9570     0.7790 c3         1 VU2       0.129800
      2 C2           5.2470     1.9460     0.3530 ca         1 VU2      -0.124000
      3 C3           5.4480     0.8130    -0.4250 ca         1 VU2      -0.132000
      4 C7           3.9960     2.1810     0.9090 ca         1 VU2      -0.132000
      5 C9          -0.1030    -0.5230    -1.2730 c3         1 VU2       0.197700
      6 C10         -1.5100    -0.3870    -0.7660 ca         1 VU2      -0.089300
      7 C11         -2.4070     0.4990    -1.3480 ca         1 VU2      -0.100500
      8 C12         -3.7090     0.6160    -0.8770 ca         1 VU2      -0.129000
      9 C13         -4.1040    -0.1630     0.1960 ca         1 VU2       0.032400
     10 C14         -3.2260    -1.0540     0.8000 ca         1 VU2      -0.129000
     11 C15         -1.9330    -1.1600     0.3150 ca         1 VU2      -0.100500
     12 N2           1.1570    -2.9960     0.5680 n8         1 VU2      -0.890800
     13 C4           4.4030    -0.0750    -0.6410 ca         1 VU2      -0.112000
     14 C5           3.1460     0.1520    -0.0860 ca         1 VU2      -0.101300
     15 C6           2.9530     1.2900     0.6920 ca         1 VU2      -0.112000
     16 O1           0.7850    -0.2440    -0.2160 os         1 VU2      -0.402600
     17 CL          -5.7260    -0.0270     0.8000 cl         1 VU2      -0.120400
     18 C8           2.0480    -0.8650    -0.2850 c3         1 VU2       0.204400
     19 H11C         1.9720    -1.4990     1.7560 h1         1 VU2       0.042200
     20 H12C         3.1830    -2.3270     0.7910 h1         1 VU2       0.042200
     21 H21N         1.4220    -3.5660    -0.2260 hn         1 VU2       0.338800
     22 H22N         1.1490    -3.6190     1.3650 hn         1 VU2       0.338800
     23 H8           2.1940    -1.3290    -1.2710 h1         1 VU2       0.037700
     24 H3           6.4170     0.6230    -0.8700 ha         1 VU2       0.130500
     25 H7           3.8300     3.0620     1.5150 ha         1 VU2       0.130500
     26 H4           4.5670    -0.9530    -1.2560 ha         1 VU2       0.136000
     27 H6           1.9840     1.4910     1.1300 ha         1 VU2       0.136000
     28 H91C         0.0440    -1.5410    -1.6480 h1         1 VU2       0.033200
     29 H92C         0.0600     0.1580    -2.1190 h1         1 VU2       0.033200
     30 H11         -2.0930     1.1140    -2.1830 ha         1 VU2       0.146000
     31 H15         -1.2420    -1.8610     0.7690 ha         1 VU2       0.146000
     32 H12         -4.3970     1.3110    -1.3390 ha         1 VU2       0.145000
     33 H14         -3.5460    -1.6540     1.6410 ha         1 VU2       0.145000
     34 H2           6.0590     2.6410     0.5240 ha         1 VU2       0.130000
@<TRIPOS>BOND
     1     1    12 1   
     2     1    18 1   
     3     1    19 1   
     4     1    20 1   
     5     2     3 ar  
     6     2     4 ar  
     7     2    34 1   
     8     3    13 ar  
     9     3    24 1   
    10     4    15 ar  
    11     4    25 1   
    12     5     6 1   
    13     5    16 1   
    14     5    28 1   
    15     5    29 1   
    16     6     7 ar  
    17     6    11 ar  
    18     7     8 ar  
    19     7    30 1   
    20     8     9 ar  
    21     8    32 1   
    22     9    10 ar  
    23     9    17 1   
    24    10    11 ar  
    25    10    33 1   
    26    11    31 1   
    27    12    21 1   
    28    12    22 1   
    29    13    14 ar  
    30    13    26 1   
    31    14    15 ar  
    32    14    18 1   
    33    15    27 1   
    34    16    18 1   
    35    18    23 1   
@<TRIPOS>SUBSTRUCTURE
     1 VU2         1 TEMP              0 ****  ****    0 ROOT
