@<TRIPOS>MOLECULE
VU3
   47    50     1     0     0
SMALL
bcc


@<TRIPOS>ATOM
      1 CAW         -1.5710     0.1310    -0.8770 c3         1 VU3      -0.024200
      2 CAO         -3.0360     0.0020    -0.6490 cc         1 VU3      -0.064300
      3 NAQ         -3.7420     0.9740     0.0120 na         1 VU3      -0.174400
      4 CAX         -5.0540     0.6100     0.1130 ca         1 VU3      -0.046200
      5 CAN         -6.1350     1.2770     0.6830 ca         1 VU3      -0.148000
      6 CAJ         -7.3690     0.6550     0.6310 ca         1 VU3      -0.110000
      7 CAF         -7.5250    -0.6020     0.0240 ca         1 VU3      -0.161000
      8 CAI         -6.4490    -1.2590    -0.5420 ca         1 VU3      -0.079000
      9 CAM         -5.1870    -0.6540    -0.5060 ca         1 VU3      -0.097800
     10 CAP         -0.7610    -0.0930     0.4050 c3         1 VU3       0.171800
     11 CAV          5.9870    -0.9000     0.6490 ca         1 VU3      -0.124500
     12 CAD          7.3230    -0.6270     0.3810 ca         1 VU3      -0.128500
     13 CAC          7.6650     0.4580    -0.4140 ca         1 VU3      -0.129000
     14 CAR          6.6600     1.2640    -0.9370 ca         1 VU3      -0.128500
     15 CAE          5.3280     0.9850    -0.6670 ca         1 VU3      -0.124500
     16 CAU          4.9700    -0.1020     0.1320 ca         1 VU3      -0.074300
     17 CAS          3.5260    -0.4130     0.4270 c6         1 VU3      -0.017400
     18 CAT          2.7260    -0.7400    -0.8360 c6         1 VU3      -0.069900
     19 CAK          2.8200     0.7150     1.1800 c6         1 VU3      -0.069900
     20 CAG          1.3620     0.3670     1.4400 c6         1 VU3       0.167800
     21 CAL          1.2720    -1.0280    -0.4930 c6         1 VU3       0.167800
     22 C17         -3.8880    -1.0160    -0.9800 cd         1 VU3      -0.184200
     23 N1           0.6610     0.0960     0.1970 n3         1 VU3      -0.726600
     24 HAW1        -1.2850    -0.5890    -1.6450 hc         1 VU3       0.061700
     25 HAW2        -1.3350     1.1240    -1.2690 hc         1 VU3       0.061700
     26 HAP1        -1.0900     0.6300     1.1550 h1         1 VU3       0.034200
     27 HAP2        -0.9940    -1.0890     0.8130 h1         1 VU3       0.034200
     28 HAQ         -3.3540     1.8410     0.3470 hn         1 VU3       0.296700
     29 H17         -3.6120    -1.9180    -1.5030 ha         1 VU3       0.152000
     30 HAN         -6.0150     2.2450     1.1530 ha         1 VU3       0.129000
     31 HAJ         -8.2310     1.1460     1.0640 ha         1 VU3       0.127000
     32 HAF         -8.5050    -1.0590    -0.0010 ha         1 VU3       0.127000
     33 HAI         -6.5820    -2.2280    -1.0090 ha         1 VU3       0.131000
     34 HAD          8.0950    -1.2650     0.7920 ha         1 VU3       0.129000
     35 HAC          8.7040     0.6750    -0.6260 ha         1 VU3       0.130000
     36 HAR          6.9150     2.1140    -1.5580 ha         1 VU3       0.129000
     37 HAE          4.5600     1.6240    -1.0860 ha         1 VU3       0.129000
     38 HAS          3.5030    -1.3020     1.0690 hc         1 VU3       0.047700
     39 HAT1         2.7730     0.0990    -1.5360 hc         1 VU3       0.050450
     40 HAT2         3.1560    -1.6070    -1.3430 hc         1 VU3       0.050450
     41 HAK1         3.3240     0.9120     2.1300 hc         1 VU3       0.050450
     42 HAK2         2.8620     1.6390     0.5960 hc         1 VU3       0.050450
     43 HAL1         0.7230    -1.2390    -1.4120 h1         1 VU3       0.030950
     44 HAL2         1.2230    -1.9440     0.1230 h1         1 VU3       0.030950
     45 HAG1         1.3090    -0.4950     2.1290 h1         1 VU3       0.030950
     46 HAG2         0.8730     1.2040     1.9450 h1         1 VU3       0.030950
     47 HAV          5.7300    -1.7510     1.2700 ha         1 VU3       0.129000
@<TRIPOS>BOND
     1     1     2 1   
     2     1    10 1   
     3     1    24 1   
     4     1    25 1   
     5     2     3 1   
     6     2    22 2   
     7     3     4 1   
     8     3    28 1   
     9     4     5 ar  
    10     4     9 ar  
    11     5     6 ar  
    12     5    30 1   
    13     6     7 ar  
    14     6    31 1   
    15     7     8 ar  
    16     7    32 1   
    17     8     9 ar  
    18     8    33 1   
    19     9    22 1   
    20    10    23 1   
    21    10    26 1   
    22    10    27 1   
    23    11    12 ar  
    24    11    16 ar  
    25    11    47 1   
    26    12    13 ar  
    27    12    34 1   
    28    13    14 ar  
    29    13    35 1   
    30    14    15 ar  
    31    14    36 1   
    32    15    16 ar  
    33    15    37 1   
    34    16    17 1   
    35    17    18 1   
    36    17    19 1   
    37    17    38 1   
    38    18    21 1   
    39    18    39 1   
    40    18    40 1   
    41    19    20 1   
    42    19    41 1   
    43    19    42 1   
    44    20    23 1   
    45    20    45 1   
    46    20    46 1   
    47    21    23 1   
    48    21    43 1   
    49    21    44 1   
    50    22    29 1   
@<TRIPOS>SUBSTRUCTURE
     1 VU3         1 TEMP              0 ****  ****    0 ROOT
