@<TRIPOS>MOLECULE
VU3
   47    50     1     0     0
SMALL
No Charge or Current Charge


@<TRIPOS>ATOM
      1 CAW         -1.6430     0.0010    -0.9120 c3         1 VU3      -0.024200
      2 CAO         -3.1180    -0.0450    -0.6130 cc         1 VU3      -0.064300
      3 NAQ         -3.8910     1.0370    -0.1440 na         1 VU3      -0.224700
      4 CAX         -5.2100     0.6440     0.0230 ca         1 VU3      -0.046200
      5 CAN         -6.3080     1.3920     0.4680 ca         1 VU3      -0.130000
      6 CAJ         -7.5600     0.7410     0.5460 ca         1 VU3      -0.092000
      7 CAF         -7.6840    -0.6240     0.1830 ca         1 VU3      -0.143000
      8 CAI         -6.5590    -1.3510    -0.2620 ca         1 VU3      -0.061000
      9 CAM         -5.3370    -0.6710    -0.3260 ca         1 VU3      -0.097800
     10 CAP         -0.7750    -0.0750     0.3650 c3         1 VU3       0.171800
     11 CAV          6.0800    -0.9940     0.5840 ca         1 VU3      -0.106500
     12 CAD          7.4400    -0.7080     0.3740 ca         1 VU3      -0.110500
     13 CAC          7.8160     0.4670    -0.2960 ca         1 VU3      -0.111000
     14 CAR          6.8310     1.3570    -0.7550 ca         1 VU3      -0.110500
     15 CAE          5.4710     1.0720    -0.5450 ca         1 VU3      -0.106500
     16 CAU          5.0840    -0.1070     0.1270 ca         1 VU3      -0.074300
     17 CAS          3.6000    -0.4310     0.3630 c6         1 VU3      -0.017400
     18 CAT          2.8160    -0.5950    -0.9640 c6         1 VU3      -0.069900
     19 CAK          2.8980     0.6370     1.2400 c6         1 VU3      -0.069900
     20 CAG          1.4040     0.2880     1.4490 c6         1 VU3       0.167800
     21 CAL          1.3220    -0.9060    -0.6980 c6         1 VU3       0.167800
     22 C17         -4.0190    -1.0930    -0.7240 cd         1 VU3      -0.234200
     23 N1           0.6810     0.1390     0.1550 n3         1 VU3      -0.726600
     24 HAW1        -1.3890    -0.8270    -1.5830 hc         1 VU3       0.061700
     25 HAW2        -1.4060     0.9270    -1.4500 hc         1 VU3       0.061700
     26 HAP1        -1.1500     0.6910     1.0580 h1         1 VU3       0.034200
     27 HAP2        -0.9470    -1.0470     0.8460 h1         1 VU3       0.034200
     28 HAQ         -3.5380     1.9690     0.0420 hn         1 VU3       0.347000
     29 H17         -3.7600    -2.0930    -1.0640 ha         1 VU3       0.202000
     30 HAN         -6.2030     2.4380     0.7440 ha         1 VU3       0.111000
     31 HAJ         -8.4340     1.2910     0.8870 ha         1 VU3       0.109000
     32 HAF         -8.6530    -1.1150     0.2470 ha         1 VU3       0.109000
     33 HAI         -6.6370    -2.3990    -0.5440 ha         1 VU3       0.113000
     34 HAD          8.2020    -1.3980     0.7300 ha         1 VU3       0.111000
     35 HAC          8.8690     0.6890    -0.4590 ha         1 VU3       0.112000
     36 HAR          7.1210     2.2680    -1.2740 ha         1 VU3       0.111000
     37 HAE          4.7200     1.7700    -0.9060 ha         1 VU3       0.111000
     38 HAS          3.5370    -1.3880     0.9000 hc         1 VU3       0.047700
     39 HAT1         2.8900     0.3190    -1.5670 hc         1 VU3       0.050450
     40 HAT2         3.2590    -1.4030    -1.5620 hc         1 VU3       0.050450
     41 HAK1         3.3990     0.7090     2.2140 hc         1 VU3       0.050450
     42 HAK2         2.9740     1.6270     0.7730 hc         1 VU3       0.050450
     43 HAL1         0.8180    -0.9800    -1.6720 h1         1 VU3       0.030950
     44 HAL2         1.2410    -1.8920    -0.2160 h1         1 VU3       0.030950
     45 HAG1         1.3320    -0.6410     2.0340 h1         1 VU3       0.030950
     46 HAG2         0.9430     1.0840     2.0520 h1         1 VU3       0.030950
     47 HAV          5.8030    -1.9090     1.1040 ha         1 VU3       0.111000
@<TRIPOS>BOND
     1     1     2 1   
     2     1    10 1   
     3     1    24 1   
     4     1    25 1   
     5     2     3 1   
     6     2    22 2   
     7     3     4 1   
     8     3    28 1   
     9     4     5 ar  
    10     4     9 ar  
    11     5     6 ar  
    12     5    30 1   
    13     6     7 ar  
    14     6    31 1   
    15     7     8 ar  
    16     7    32 1   
    17     8     9 ar  
    18     8    33 1   
    19     9    22 1   
    20    10    23 1   
    21    10    26 1   
    22    10    27 1   
    23    11    12 ar  
    24    11    16 ar  
    25    11    47 1   
    26    12    13 ar  
    27    12    34 1   
    28    13    14 ar  
    29    13    35 1   
    30    14    15 ar  
    31    14    36 1   
    32    15    16 ar  
    33    15    37 1   
    34    16    17 1   
    35    17    18 1   
    36    17    19 1   
    37    17    38 1   
    38    18    21 1   
    39    18    39 1   
    40    18    40 1   
    41    19    20 1   
    42    19    41 1   
    43    19    42 1   
    44    20    23 1   
    45    20    45 1   
    46    20    46 1   
    47    21    23 1   
    48    21    43 1   
    49    21    44 1   
    50    22    29 1   
@<TRIPOS>SUBSTRUCTURE
     1 VU3         1 TEMP              0 ****  ****    0 ROOT
