@<TRIPOS>MOLECULE
VU4
   22    22     1     0     0
SMALL
abcg2


@<TRIPOS>ATOM
      1 CH          -7.6590    13.1880   -23.2680 c          1 VU4       0.712600
      2 OH          -8.8780    13.2610   -23.0170 o          1 VU4      -0.721500
      3 C01         -6.9050    14.5100   -23.3720 ca         1 VU4      -0.129600
      4 C02         -7.5690    15.7270   -23.2370 ca         1 VU4      -0.090000
      5 C03         -6.8890    16.9310   -23.3430 ca         1 VU4      -0.138000
      6 C04         -5.5170    16.9610   -23.5830 ca         1 VU4      -0.123300
      7 C05         -4.8500    15.7450   -23.7100 ca         1 VU4      -0.138000
      8 C06         -5.5320    14.5410   -23.6090 ca         1 VU4      -0.090000
      9 C07         -4.7920    18.2640   -23.7620 c3         1 VU4      -0.017100
     10 C08         -4.8590    18.7460   -25.2110 c3         1 VU4       0.143800
     11 N01         -4.1520    20.0070   -25.3680 n8         1 VU4      -1.003200
     12 H2          -8.6350    15.7310   -23.0460 ha         1 VU4       0.125000
     13 H3          -7.4320    17.8640   -23.2340 ha         1 VU4       0.083000
     14 H4          -3.7810    15.7410   -23.8930 ha         1 VU4       0.083000
     15 H5          -4.9910    13.6100   -23.7140 ha         1 VU4       0.125000
     16 H6          -3.7440    18.1590   -23.4730 hc         1 VU4       0.037200
     17 H7          -5.2290    19.0270   -23.1110 hc         1 VU4       0.037200
     18 H8          -5.9140    18.7880   -25.5200 h1         1 VU4       0.032700
     19 H9          -4.3820    18.0010   -25.8520 h1         1 VU4       0.032700
     20 H10         -4.1550    20.2750   -26.3440 hn         1 VU4       0.381000
     21 H11         -4.6580    20.7380   -24.8830 hn         1 VU4       0.381000
     22 O1          -6.9910    12.1510   -23.4470 o          1 VU4      -0.721500
@<TRIPOS>BOND
     1     1     2 1   
     2     1     3 1   
     3     1    22 1   
     4     3     4 ar  
     5     3     8 ar  
     6     4     5 ar  
     7     4    12 1   
     8     5     6 ar  
     9     5    13 1   
    10     6     7 ar  
    11     6     9 1   
    12     7     8 ar  
    13     7    14 1   
    14     8    15 1   
    15     9    10 1   
    16     9    16 1   
    17     9    17 1   
    18    10    11 1   
    19    10    18 1   
    20    10    19 1   
    21    11    20 1   
    22    11    21 1   
@<TRIPOS>SUBSTRUCTURE
     1 VU4         1 TEMP              0 ****  ****    0 ROOT
