@<TRIPOS>MOLECULE
VU4
   22    22     1     0     0
SMALL
No Charge or Current Charge


@<TRIPOS>ATOM
      1 CH          -7.6620    13.1500   -23.2110 c          1 VU4       0.712600
      2 OH          -8.8630    13.1700   -22.9760 o          1 VU4      -0.721500
      3 C01         -6.9240    14.4730   -23.3540 ca         1 VU4      -0.129600
      4 C02         -7.6090    15.7040   -23.2200 ca         1 VU4      -0.090000
      5 C03         -6.9250    16.9250   -23.3520 ca         1 VU4      -0.138000
      6 C04         -5.5450    16.9450   -23.6210 ca         1 VU4      -0.123300
      7 C05         -4.8560    15.7280   -23.7580 ca         1 VU4      -0.138000
      8 C06         -5.5360    14.5040   -23.6270 ca         1 VU4      -0.090000
      9 C07         -4.8070    18.2710   -23.7690 c3         1 VU4      -0.017100
     10 C08         -4.7990    18.7710   -25.2310 c3         1 VU4       0.143800
     11 N01         -4.0900    20.0600   -25.3780 n8         1 VU4      -1.003200
     12 H2          -8.6770    15.7180   -23.0120 ha         1 VU4       0.125000
     13 H3          -7.4740    17.8590   -23.2470 ha         1 VU4       0.083000
     14 H4          -3.7890    15.7270   -23.9700 ha         1 VU4       0.083000
     15 H5          -4.9770    13.5770   -23.7380 ha         1 VU4       0.125000
     16 H6          -3.7730    18.1650   -23.4190 hc         1 VU4       0.037200
     17 H7          -5.2720    19.0320   -23.1300 hc         1 VU4       0.037200
     18 H8          -5.8340    18.8960   -25.5800 h1         1 VU4       0.032700
     19 H9          -4.3080    18.0240   -25.8700 h1         1 VU4       0.032700
     20 H10         -4.1690    20.3760   -26.3520 hn         1 VU4       0.381000
     21 H11         -4.5950    20.7810   -24.8480 hn         1 VU4       0.381000
     22 O1          -7.0300    12.1090   -23.3360 o          1 VU4      -0.721500
@<TRIPOS>BOND
     1     1     2 1   
     2     1     3 1   
     3     1    22 1   
     4     3     4 ar  
     5     3     8 ar  
     6     4     5 ar  
     7     4    12 1   
     8     5     6 ar  
     9     5    13 1   
    10     6     7 ar  
    11     6     9 1   
    12     7     8 ar  
    13     7    14 1   
    14     8    15 1   
    15     9    10 1   
    16     9    16 1   
    17     9    17 1   
    18    10    11 1   
    19    10    18 1   
    20    10    19 1   
    21    11    20 1   
    22    11    21 1   
@<TRIPOS>SUBSTRUCTURE
     1 VU4         1 TEMP              0 ****  ****    0 ROOT
