@<TRIPOS>MOLECULE
VU5
   28    28     1     0     0
SMALL
abcg2


@<TRIPOS>ATOM
      1 N1           8.3230     1.0700    -4.8290 n          1 VU5      -0.420800
      2 C7           7.7070     0.5120    -5.8960 c          1 VU5       0.558000
      3 O1          10.2700     4.2380    -4.7180 oh         1 VU5      -0.667000
      4 C1           8.1440     3.9850    -5.7440 c3         1 VU5       0.160800
      5 C5           6.7560    -0.4050    -3.8830 c5         1 VU5      -0.089400
      6 C6           6.5140    -0.2790    -5.3910 c5         1 VU5      -0.165400
      7 C4           7.6570     0.7950    -3.5570 c5         1 VU5       0.096000
      8 C3           9.4500     1.9710    -4.9290 c3         1 VU5       0.078000
      9 C2           9.0810     3.4400    -4.6850 c3         1 VU5       0.143300
     10 O            8.0460     0.6460    -7.0710 o          1 VU5      -0.555000
     11 C            6.8660     5.9130    -6.4650 c3         1 VU5       0.145100
     12 H1          10.7820     4.0630    -3.9190 ho         1 VU5       0.442000
     13 H2           7.2620     3.3420    -5.8010 h1         1 VU5       0.046200
     14 H3           8.6490     3.9260    -6.7230 h1         1 VU5       0.046200
     15 H4           5.8380    -0.3960    -3.2970 hc         1 VU5       0.057700
     16 H5           7.2880    -1.3320    -3.6680 hc         1 VU5       0.057700
     17 H6           5.6150     0.3030    -5.6150 hc         1 VU5       0.077700
     18 H7           6.4330    -1.2300    -5.9140 hc         1 VU5       0.077700
     19 H8           8.3970     0.5770    -2.7860 h1         1 VU5       0.047700
     20 H9           7.0760     1.6640    -3.2340 h1         1 VU5       0.047700
     21 H10         10.2040     1.6750    -4.1940 h1         1 VU5       0.065200
     22 H11          9.8790     1.8640    -5.9250 h1         1 VU5       0.065200
     23 H12          8.6020     3.5410    -3.7060 h1         1 VU5       0.042700
     24 H13          8.5360     5.9160    -5.3060 hn         1 VU5       0.418000
     25 H15          6.6220     6.9460    -6.2120 h1         1 VU5       0.030033
     26 H16          7.3340     5.9020    -7.4610 h1         1 VU5       0.030033
     27 H17          5.9320     5.3500    -6.5310 h1         1 VU5       0.030033
     28 N            7.7100     5.3380    -5.4230 n7         1 VU5      -0.866400
@<TRIPOS>BOND
     1     1     2 1   
     2     1     7 1   
     3     1     8 1   
     4     2     6 1   
     5     2    10 2   
     6     3     9 1   
     7     3    12 1   
     8     4     9 1   
     9     4    13 1   
    10     4    14 1   
    11     4    28 1   
    12     5     6 1   
    13     5     7 1   
    14     5    15 1   
    15     5    16 1   
    16     6    17 1   
    17     6    18 1   
    18     7    19 1   
    19     7    20 1   
    20     8     9 1   
    21     8    21 1   
    22     8    22 1   
    23     9    23 1   
    24    11    25 1   
    25    11    26 1   
    26    11    27 1   
    27    11    28 1   
    28    24    28 1   
@<TRIPOS>SUBSTRUCTURE
     1 VU5         1 TEMP              0 ****  ****    0 ROOT
