@<TRIPOS>MOLECULE
VU5
   28    28     1     0     0
SMALL
No Charge or Current Charge


@<TRIPOS>ATOM
      1 N1           8.1590     1.1320    -4.7270 n          1 VU5      -0.420800
      2 C7           7.5500     0.5780    -5.8570 c          1 VU5       0.558000
      3 O1          10.2120     4.3020    -4.6590 oh         1 VU5      -0.667000
      4 C1           8.0260     4.0570    -5.7590 c3         1 VU5       0.160800
      5 C5           6.9810    -0.7420    -3.9320 c5         1 VU5      -0.089400
      6 C6           6.4130    -0.2680    -5.2960 c5         1 VU5      -0.165400
      7 C4           7.6990     0.5560    -3.4460 c5         1 VU5       0.096000
      8 C3           9.3340     2.0260    -4.8460 c3         1 VU5       0.078000
      9 C2           8.9940     3.5270    -4.6600 c3         1 VU5       0.143300
     10 O            8.0020     0.6150    -6.9930 o          1 VU5      -0.555000
     11 C            7.0120     6.1400    -6.6950 c3         1 VU5       0.145100
     12 H1          10.6570     4.1440    -3.7960 ho         1 VU5       0.442000
     13 H2           7.0840     3.4910    -5.7150 h1         1 VU5       0.046200
     14 H3           8.4800     3.8600    -6.7410 h1         1 VU5       0.046200
     15 H4           6.2090    -1.0870    -3.2360 hc         1 VU5       0.057700
     16 H5           7.6990    -1.5600    -4.0670 hc         1 VU5       0.057700
     17 H6           5.5640     0.3950    -5.0990 hc         1 VU5       0.077700
     18 H7           6.1140    -1.0620    -5.9880 hc         1 VU5       0.077700
     19 H8           8.5280     0.3380    -2.7600 h1         1 VU5       0.047700
     20 H9           7.0000     1.2410    -2.9460 h1         1 VU5       0.047700
     21 H10         10.0650     1.7310    -4.0820 h1         1 VU5       0.065200
     22 H11          9.8150     1.8850    -5.8230 h1         1 VU5       0.065200
     23 H12          8.4900     3.6380    -3.6900 h1         1 VU5       0.042700
     24 H13          8.6820     5.9610    -5.5210 hn         1 VU5       0.418000
     25 H15          6.8660     7.2110    -6.4970 h1         1 VU5       0.030033
     26 H16          7.5530     6.0400    -7.6460 h1         1 VU5       0.030033
     27 H17          6.0230     5.6780    -6.8120 h1         1 VU5       0.030033
     28 N            7.7610     5.5070    -5.5930 n7         1 VU5      -0.866400
@<TRIPOS>BOND
     1     1     2 1   
     2     1     7 1   
     3     1     8 1   
     4     2     6 1   
     5     2    10 2   
     6     3     9 1   
     7     3    12 1   
     8     4     9 1   
     9     4    13 1   
    10     4    14 1   
    11     4    28 1   
    12     5     6 1   
    13     5     7 1   
    14     5    15 1   
    15     5    16 1   
    16     6    17 1   
    17     6    18 1   
    18     7    19 1   
    19     7    20 1   
    20     8     9 1   
    21     8    21 1   
    22     8    22 1   
    23     9    23 1   
    24    11    25 1   
    25    11    26 1   
    26    11    27 1   
    27    11    28 1   
    28    24    28 1   
@<TRIPOS>SUBSTRUCTURE
     1 VU5         1 TEMP              0 ****  ****    0 ROOT
