@<TRIPOS>MOLECULE
VU6
   60    65     1     0     0
SMALL
abcg2


@<TRIPOS>ATOM
      1 C4          18.0240    -2.1740     4.8140 cg         1 VU6       0.359000
      2 N12         23.6990    -0.0600     5.7460 nb         1 VU6      -0.231000
      3 C13         22.7910    -1.6140     7.3050 ca         1 VU6      -0.269000
      4 C17         20.1020    -0.1470     6.7570 cc         1 VU6      -0.184300
      5 C20         17.3470    -0.1320     7.4550 c6         1 VU6      -0.068400
      6 C21         19.1880     0.4290     5.9390 cd         1 VU6       0.179300
      7 C22         16.9340     0.1130     4.9800 cc         1 VU6      -0.034300
      8 C24         15.4990     2.1950     4.7440 c6         1 VU6      -0.003100
      9 C26         17.4530     2.1660     6.3270 c6         1 VU6      -0.066400
     10 C28         25.8300     1.0940     4.4470 c6         1 VU6       0.239500
     11 C1          17.1200    -1.1910     4.3770 cc         1 VU6      -0.107000
     12 C11         24.9180    -0.5540     6.0320 ca         1 VU6       0.393900
     13 C14         24.0860    -2.0500     7.5340 ca         1 VU6       0.147900
     14 C16         21.3160    -0.0870     6.0020 cc         1 VU6       0.226000
     15 C18         19.7470    -0.6690     8.1090 c6         1 VU6      -0.001100
     16 C19         18.4090    -0.0600     8.5540 c6         1 VU6      -0.074400
     17 C2          16.2710    -1.4240     3.3060 cd         1 VU6       0.206000
     18 C23         15.9510     0.8230     4.3720 cd         1 VU6      -0.185300
     19 C25         15.9790     2.5180     6.1620 c6         1 VU6      -0.071400
     20 C27         17.7250     0.6480     6.1620 c6         1 VU6      -0.012000
     21 C29         26.7350     0.8830     3.2370 c6         1 VU6       0.142800
     22 C31         28.1910    -0.5800     4.4490 c6         1 VU6       0.137800
     23 C32         27.3570    -0.4100     5.7080 c6         1 VU6       0.228800
     24 C33         26.0620     2.4210     5.1570 c3         1 VU6      -0.101100
     25 C9          22.6510    -0.5970     6.3640 ca         1 VU6       0.128000
     26 N10         25.9850    -0.0400     5.3680 nh         1 VU6      -0.776300
     27 N15         25.1480    -1.5470     6.9250 nb         1 VU6      -0.244000
     28 N30         28.1200     0.6390     3.6510 n7         1 VU6      -0.856400
     29 N5          18.7650    -2.9860     5.1700 n1         1 VU6      -0.471000
     30 N7          21.1250     0.4890     4.8340 nd         1 VU6      -0.311300
     31 O8          19.7740     0.8250     4.7890 os         1 VU6      -0.080700
     32 S3          15.2420    -0.0640     3.0460 ss         1 VU6       0.148000
     33 H13         21.9500    -2.0660     7.8060 ha         1 VU6       0.140000
     34 H20B        16.3920     0.2460     7.8210 hc         1 VU6       0.055700
     35 H20A        17.1860    -1.1820     7.1980 hc         1 VU6       0.055700
     36 H24A        15.9110     2.9320     4.0450 hc         1 VU6       0.055700
     37 H24B        14.4130     2.2790     4.6790 hc         1 VU6       0.055700
     38 H26B        17.8110     2.4740     7.3090 hc         1 VU6       0.057700
     39 H26A        18.0300     2.7150     5.5780 hc         1 VU6       0.057700
     40 H28         24.8010     1.0570     4.0960 h1         1 VU6       0.091700
     41 H14         24.2750    -2.8400     8.2590 h4         1 VU6       0.020100
     42 H18A        19.6650    -1.7630     8.0770 hc         1 VU6       0.056700
     43 H18B        20.5260    -0.4490     8.8420 hc         1 VU6       0.056700
     44 H19B        18.5770     0.9800     8.8400 hc         1 VU6       0.046200
     45 H19A        18.0500    -0.5790     9.4440 hc         1 VU6       0.046200
     46 H25A        15.8320     3.5810     6.3600 hc         1 VU6       0.047200
     47 H25B        15.3680     1.9800     6.8830 hc         1 VU6       0.047200
     48 H29B        26.7030     1.7660     2.6010 h1         1 VU6       0.042200
     49 H29A        26.3340     0.0260     2.6690 h1         1 VU6       0.042200
     50 H31A        27.8240    -1.4610     3.8940 h1         1 VU6       0.040700
     51 H31B        29.2290    -0.7660     4.7340 h1         1 VU6       0.040700
     52 H32B        27.3390    -1.3370     6.2700 h1         1 VU6       0.064700
     53 H32A        27.8040     0.3660     6.3410 h1         1 VU6       0.064700
     54 H33B        25.3790     2.5260     6.0010 hc         1 VU6       0.043700
     55 H33C        27.0870     2.5180     5.5130 hc         1 VU6       0.043700
     56 H33A        25.8780     3.2440     4.4700 hc         1 VU6       0.043700
     57 H30A        28.6970     0.5330     2.8230 hn         1 VU6       0.409000
     58 H6B         15.4920    -2.5340     1.8180 hn         1 VU6       0.458000
     59 H6A         17.0840    -2.8850     2.1840 hn         1 VU6       0.458000
     60 N6          16.1940    -2.5640     2.5420 nv         1 VU6      -1.027000
@<TRIPOS>BOND
     1     1    11 1   
     2     1    29 3   
     3     2    12 ar  
     4     2    25 ar  
     5     3    13 ar  
     6     3    25 ar  
     7     3    33 1   
     8     4     6 2   
     9     4    14 1   
    10     4    15 1   
    11     5    16 1   
    12     5    20 1   
    13     5    34 1   
    14     5    35 1   
    15     6    20 1   
    16     6    31 1   
    17     7    11 1   
    18     7    18 2   
    19     7    20 1   
    20     8    18 1   
    21     8    19 1   
    22     8    36 1   
    23     8    37 1   
    24     9    19 1   
    25     9    20 1   
    26     9    38 1   
    27     9    39 1   
    28    10    21 1   
    29    10    24 1   
    30    10    26 1   
    31    10    40 1   
    32    11    17 2   
    33    12    26 1   
    34    12    27 ar  
    35    13    27 ar  
    36    13    41 1   
    37    14    25 1   
    38    14    30 2   
    39    15    16 1   
    40    15    42 1   
    41    15    43 1   
    42    16    44 1   
    43    16    45 1   
    44    17    32 1   
    45    17    60 1   
    46    18    32 1   
    47    19    46 1   
    48    19    47 1   
    49    21    28 1   
    50    21    48 1   
    51    21    49 1   
    52    22    23 1   
    53    22    28 1   
    54    22    50 1   
    55    22    51 1   
    56    23    26 1   
    57    23    52 1   
    58    23    53 1   
    59    24    54 1   
    60    24    55 1   
    61    24    56 1   
    62    28    57 1   
    63    30    31 1   
    64    58    60 1   
    65    59    60 1   
@<TRIPOS>SUBSTRUCTURE
     1 VU6         1 TEMP              0 ****  ****    0 ROOT
