@<TRIPOS>MOLECULE
VU6
   60    65     1     0     0
SMALL
No Charge or Current Charge


@<TRIPOS>ATOM
      1 C4          17.6010    -2.3120     4.9060 cg         1 VU6       0.359000
      2 N12         23.6970    -0.3390     5.4230 nb         1 VU6      -0.231000
      3 C13         22.7140    -1.9670     6.8690 ca         1 VU6      -0.269000
      4 C17         20.1310    -0.2600     6.3320 cc         1 VU6      -0.184300
      5 C20         17.4990     0.0500     7.3870 c6         1 VU6      -0.068400
      6 C21         19.1720     0.2380     5.5220 cd         1 VU6       0.179300
      7 C22         16.6790     0.0380     4.9970 cc         1 VU6      -0.034300
      8 C24         15.4000     2.2540     4.8050 c6         1 VU6      -0.003100
      9 C26         17.6830     2.1730     5.9190 c6         1 VU6      -0.066400
     10 C28         25.9720     1.1750     4.5920 c6         1 VU6       0.239500
     11 C1          16.6370    -1.3270     4.5380 cc         1 VU6      -0.107000
     12 C11         24.9020    -0.7900     5.8360 ca         1 VU6       0.393900
     13 C14         24.0040    -2.3750     7.2360 ca         1 VU6       0.147900
     14 C16         21.2810    -0.3860     5.5130 cc         1 VU6       0.226000
     15 C18         19.9690    -0.5450     7.8040 c6         1 VU6      -0.001100
     16 C19         18.7230     0.2120     8.3380 c6         1 VU6      -0.074400
     17 C2          15.5700    -1.5910     3.7110 cd         1 VU6       0.206000
     18 C23         15.6300     0.7880     4.5140 cd         1 VU6      -0.185300
     19 C25         16.2380     2.7220     6.0130 c6         1 VU6      -0.071400
     20 C27         17.7550     0.6060     5.9350 c6         1 VU6      -0.012000
     21 C29         27.1400     1.4010     3.5650 c6         1 VU6       0.142800
     22 C31         28.5580    -0.2400     4.6940 c6         1 VU6       0.137800
     23 C32         27.4460    -0.5220     5.7600 c6         1 VU6       0.228800
     24 C33         25.9090     2.3130     5.6500 c3         1 VU6      -0.101100
     25 C9          22.5880    -0.9250     5.9270 ca         1 VU6       0.128000
     26 N10         26.0570    -0.1630     5.2870 nh         1 VU6      -0.776300
     27 N15         25.0990    -1.7890     6.7220 nb         1 VU6      -0.244000
     28 N30         28.4950     1.1340     4.1250 n7         1 VU6      -0.856400
     29 N5          18.3680    -3.1380     5.2110 n1         1 VU6      -0.471000
     30 N7          21.0460    -0.0050     4.2600 nd         1 VU6      -0.311300
     31 O8          19.6640     0.4100     4.2580 os         1 VU6      -0.080700
     32 S3          14.5600    -0.1500     3.4650 ss         1 VU6       0.148000
     33 H13         21.8470    -2.4700     7.2850 ha         1 VU6       0.140000
     34 H20B        16.6180     0.5240     7.8370 hc         1 VU6       0.055700
     35 H20A        17.2510    -1.0180     7.3430 hc         1 VU6       0.055700
     36 H24A        15.6730     2.8480     3.9220 hc         1 VU6       0.055700
     37 H24B        14.3360     2.4530     4.9920 hc         1 VU6       0.055700
     38 H26B        18.2940     2.6000     6.7240 hc         1 VU6       0.057700
     39 H26A        18.1270     2.5500     4.9860 hc         1 VU6       0.057700
     40 H28         25.0450     1.2390     4.0010 h1         1 VU6       0.091700
     41 H14         24.1640    -3.1820     7.9490 h4         1 VU6       0.020100
     42 H18A        19.8250    -1.6220     7.9680 hc         1 VU6       0.056700
     43 H18B        20.8600    -0.2500     8.3750 hc         1 VU6       0.056700
     44 H19B        18.9650     1.2750     8.4670 hc         1 VU6       0.046200
     45 H19A        18.4690    -0.1640     9.3390 hc         1 VU6       0.046200
     46 H25A        16.2560     3.8200     6.0450 hc         1 VU6       0.047200
     47 H25B        15.7610     2.3980     6.9460 hc         1 VU6       0.047200
     48 H29B        27.0960     2.4310     3.1800 h1         1 VU6       0.042200
     49 H29A        26.9760     0.7320     2.7060 h1         1 VU6       0.042200
     50 H31A        28.4500    -0.9700     3.8770 h1         1 VU6       0.040700
     51 H31B        29.5460    -0.4050     5.1480 h1         1 VU6       0.040700
     52 H32B        27.5160    -1.5880     6.0190 h1         1 VU6       0.064700
     53 H32A        27.6840     0.0450     6.6720 h1         1 VU6       0.064700
     54 H33B        25.0560     2.1810     6.3250 hc         1 VU6       0.043700
     55 H33C        26.8190     2.3480     6.2610 hc         1 VU6       0.043700
     56 H33A        25.7960     3.2900     5.1660 hc         1 VU6       0.043700
     57 H30A        29.1930     1.2200     3.3740 hn         1 VU6       0.409000
     58 H6B         14.4490    -2.8970     2.5150 hn         1 VU6       0.458000
     59 H6A         15.8530    -3.6210     3.2630 hn         1 VU6       0.458000
     60 N6          15.2650    -2.8000     3.1190 nv         1 VU6      -1.027000
@<TRIPOS>BOND
     1     1    11 1   
     2     1    29 3   
     3     2    12 ar  
     4     2    25 ar  
     5     3    13 ar  
     6     3    25 ar  
     7     3    33 1   
     8     4     6 2   
     9     4    14 1   
    10     4    15 1   
    11     5    16 1   
    12     5    20 1   
    13     5    34 1   
    14     5    35 1   
    15     6    20 1   
    16     6    31 1   
    17     7    11 1   
    18     7    18 2   
    19     7    20 1   
    20     8    18 1   
    21     8    19 1   
    22     8    36 1   
    23     8    37 1   
    24     9    19 1   
    25     9    20 1   
    26     9    38 1   
    27     9    39 1   
    28    10    21 1   
    29    10    24 1   
    30    10    26 1   
    31    10    40 1   
    32    11    17 2   
    33    12    26 1   
    34    12    27 ar  
    35    13    27 ar  
    36    13    41 1   
    37    14    25 1   
    38    14    30 2   
    39    15    16 1   
    40    15    42 1   
    41    15    43 1   
    42    16    44 1   
    43    16    45 1   
    44    17    32 1   
    45    17    60 1   
    46    18    32 1   
    47    19    46 1   
    48    19    47 1   
    49    21    28 1   
    50    21    48 1   
    51    21    49 1   
    52    22    23 1   
    53    22    28 1   
    54    22    50 1   
    55    22    51 1   
    56    23    26 1   
    57    23    52 1   
    58    23    53 1   
    59    24    54 1   
    60    24    55 1   
    61    24    56 1   
    62    28    57 1   
    63    30    31 1   
    64    58    60 1   
    65    59    60 1   
@<TRIPOS>SUBSTRUCTURE
     1 VU6         1 TEMP              0 ****  ****    0 ROOT
