@<TRIPOS>MOLECULE
VU7
   48    51     1     0     0
SMALL
No Charge or Current Charge


@<TRIPOS>ATOM
      1 C1         -32.8600    18.8700    27.3520 c3         1 VU7       0.112900
      2 C4         -30.5100    20.5790    25.8880 c          1 VU7       0.615700
      3 C6         -30.0660    21.1550    24.5640 ca         1 VU7      -0.120600
      4 C7         -28.7040    21.5090    24.3620 ca         1 VU7      -0.059300
      5 C8         -27.6710    21.2530    25.4680 c3         1 VU7      -0.057800
      6 N10        -29.1870    22.1710    22.0770 nb         1 VU7      -0.646000
      7 C11        -30.4840    21.8530    22.2530 ca         1 VU7       0.250000
      8 C12        -31.3770    22.0340    21.1780 ca         1 VU7      -0.050000
      9 C16        -32.3660    21.0990    23.6260 ca         1 VU7      -0.141000
     10 C17        -30.9770    21.3550    23.4900 ca         1 VU7      -0.033000
     11 C18        -26.9220    22.5120    22.7900 cp         1 VU7      -0.147500
     12 C19        -26.2570    22.0840    21.6140 ca         1 VU7      -0.083000
     13 C21        -24.2650    23.4090    22.1760 cp         1 VU7      -0.021000
     14 C23        -26.2390    23.4180    23.6400 ca         1 VU7      -0.083000
     15 C24        -22.8830    23.8770    21.8430 cp         1 VU7      -0.071000
     16 C27        -20.2710    24.7740    21.1600 ca         1 VU7      -0.081000
     17 O2         -31.4710    18.6710    27.0440 os         1 VU7      -0.219100
     18 N3         -31.1070    19.3300    25.8190 ns         1 VU7      -0.392400
     19 O5         -30.3760    21.1860    26.9430 o          1 VU7      -0.558100
     20 C9         -28.3160    22.0490    23.1000 cp         1 VU7       0.416500
     21 C13        -32.7450    21.7520    21.3160 ca         1 VU7      -0.138000
     22 C14        -33.2340    21.2930    22.5430 ca         1 VU7       0.176000
     23 F15        -34.5530    21.0410    22.6880 f          1 VU7      -0.178000
     24 C20        -24.9550    22.5230    21.3150 ca         1 VU7      -0.098500
     25 C22        -24.9370    23.8550    23.3400 ca         1 VU7      -0.098500
     26 C25        -22.5650    24.2710    20.5190 ca         1 VU7      -0.078000
     27 C26        -21.2750    24.7160    20.1810 ca         1 VU7      -0.126000
     28 C28        -20.5590    24.3820    22.4770 ca         1 VU7      -0.149000
     29 C29        -21.8480    23.9380    22.8170 ca         1 VU7       0.175000
     30 F30        -22.0730    23.5420    24.0900 f          1 VU7      -0.182000
     31 H1         -33.1200    18.3580    28.2870 h1         1 VU7       0.048033
     32 H2         -33.0840    19.9380    27.4740 h1         1 VU7       0.048033
     33 H3         -33.4980    18.4690    26.5540 h1         1 VU7       0.048033
     34 H4         -27.6580    22.0750    26.1940 hc         1 VU7       0.058700
     35 H5         -27.8780    20.3250    26.0150 hc         1 VU7       0.058700
     36 H6         -26.6570    21.1400    25.0690 hc         1 VU7       0.058700
     37 H7         -30.9990    22.4070    20.2290 ha         1 VU7       0.139000
     38 H8         -32.7990    20.7670    24.5640 ha         1 VU7       0.141000
     39 H9         -26.7550    21.3990    20.9310 ha         1 VU7       0.122500
     40 H10        -26.7290    23.7960    24.5350 ha         1 VU7       0.122500
     41 H11        -19.2720    25.1170    20.8980 ha         1 VU7       0.120000
     42 H12        -31.1590    18.7870    24.9620 hn         1 VU7       0.345500
     43 H13        -33.4240    21.9000    20.4800 ha         1 VU7       0.139000
     44 H14        -24.4720    22.1620    20.4110 ha         1 VU7       0.121000
     45 H15        -24.4510    24.5600    24.0090 ha         1 VU7       0.121000
     46 H16        -23.3330    24.2430    19.7480 ha         1 VU7       0.120000
     47 H17        -21.0550    25.0180    19.1590 ha         1 VU7       0.120000
     48 H18        -19.7830    24.4170    23.2380 ha         1 VU7       0.133000
@<TRIPOS>BOND
     1     1    17 1   
     2     1    31 1   
     3     1    32 1   
     4     1    33 1   
     5     2     3 1   
     6     2    18 1   
     7     2    19 2   
     8     3     4 ar  
     9     3    10 ar  
    10     4     5 1   
    11     4    20 ar  
    12     5    34 1   
    13     5    35 1   
    14     5    36 1   
    15     6     7 ar  
    16     6    20 ar  
    17     7     8 ar  
    18     7    10 ar  
    19     8    21 ar  
    20     8    37 1   
    21     9    10 ar  
    22     9    22 ar  
    23     9    38 1   
    24    11    12 ar  
    25    11    14 ar  
    26    11    20 1   
    27    12    24 ar  
    28    12    39 1   
    29    13    15 1   
    30    13    24 ar  
    31    13    25 ar  
    32    14    25 ar  
    33    14    40 1   
    34    15    26 ar  
    35    15    29 ar  
    36    16    27 ar  
    37    16    28 ar  
    38    16    41 1   
    39    17    18 1   
    40    18    42 1   
    41    21    22 ar  
    42    21    43 1   
    43    22    23 1   
    44    24    44 1   
    45    25    45 1   
    46    26    27 ar  
    47    26    46 1   
    48    27    47 1   
    49    28    29 ar  
    50    28    48 1   
    51    29    30 1   
@<TRIPOS>SUBSTRUCTURE
     1 VU7         1 TEMP              0 ****  ****    0 ROOT
