@<TRIPOS>MOLECULE
VU7
   48    51     1     0     0
SMALL
abcg2


@<TRIPOS>ATOM
      1 C1         -32.4450    18.5510    27.1370 c3         1 VU7       0.112900
      2 C4         -30.6430    20.8540    25.8790 c          1 VU7       0.615700
      3 C6         -30.1250    21.3300    24.5470 ca         1 VU7      -0.120600
      4 C7         -28.7920    21.6340    24.3840 ca         1 VU7      -0.059300
      5 C8         -27.8030    21.4000    25.4940 c3         1 VU7      -0.057800
      6 N10        -29.2190    22.2980    22.1000 nb         1 VU7      -0.646000
      7 C11        -30.5310    21.9920    22.2550 ca         1 VU7       0.250000
      8 C12        -31.4050    22.1720    21.1560 ca         1 VU7      -0.050000
      9 C16        -32.4320    21.2290    23.5980 ca         1 VU7      -0.141000
     10 C17        -31.0500    21.5110    23.4880 ca         1 VU7      -0.033000
     11 C18        -26.9790    22.5480    22.8380 cp         1 VU7      -0.147500
     12 C19        -26.3450    22.0930    21.6790 ca         1 VU7      -0.083000
     13 C21        -24.3400    23.3380    22.2310 cp         1 VU7      -0.021000
     14 C23        -26.2780    23.4110    23.6830 ca         1 VU7      -0.083000
     15 C24        -22.9680    23.7640    21.8780 cp         1 VU7      -0.071000
     16 C27        -20.3560    24.5730    21.1750 ca         1 VU7      -0.081000
     17 O2         -31.0510    18.9170    27.1780 os         1 VU7      -0.219100
     18 N3         -30.6720    19.5150    25.9950 ns         1 VU7      -0.392400
     19 O5         -31.0210    21.6360    26.7430 o          1 VU7      -0.558100
     20 C9         -28.3860    22.1540    23.1110 cp         1 VU7       0.416500
     21 C13        -32.7420    21.8940    21.2750 ca         1 VU7      -0.138000
     22 C14        -33.2260    21.4270    22.5060 ca         1 VU7       0.176000
     23 F15        -34.5520    21.1620    22.5990 f          1 VU7      -0.178000
     24 C20        -25.0460    22.4750    21.3850 ca         1 VU7      -0.098500
     25 C22        -24.9820    23.8030    23.3830 ca         1 VU7      -0.098500
     26 C25        -22.6340    24.0970    20.5580 ca         1 VU7      -0.078000
     27 C26        -21.3520    24.4960    20.2060 ca         1 VU7      -0.126000
     28 C28        -20.6510    24.2440    22.4930 ca         1 VU7      -0.149000
     29 C29        -21.9370    23.8530    22.8130 ca         1 VU7       0.175000
     30 F30        -22.1810    23.5100    24.1050 f          1 VU7      -0.182000
     31 H1         -32.6480    18.0940    28.1040 h1         1 VU7       0.048033
     32 H2         -33.0660    19.4370    27.0000 h1         1 VU7       0.048033
     33 H3         -32.6240    17.8330    26.3350 h1         1 VU7       0.048033
     34 H4         -27.6520    22.3050    26.0870 hc         1 VU7       0.058700
     35 H5         -28.1500    20.6200    26.1700 hc         1 VU7       0.058700
     36 H6         -26.8340    21.1040    25.0990 hc         1 VU7       0.058700
     37 H7         -30.9930    22.5380    20.2250 ha         1 VU7       0.139000
     38 H8         -32.8630    20.8660    24.5210 ha         1 VU7       0.141000
     39 H9         -26.8750    21.4260    21.0130 ha         1 VU7       0.122500
     40 H10        -26.7550    23.8040    24.5710 ha         1 VU7       0.122500
     41 H11        -19.3550    24.8840    20.9100 ha         1 VU7       0.120000
     42 H12        -30.3080    18.8900    25.2870 hn         1 VU7       0.345500
     43 H13        -33.4280    22.0280    20.4490 ha         1 VU7       0.139000
     44 H14        -24.5670    22.0890    20.4940 ha         1 VU7       0.121000
     45 H15        -24.4730    24.4920    24.0420 ha         1 VU7       0.121000
     46 H16        -23.4080    24.0540    19.8030 ha         1 VU7       0.120000
     47 H17        -21.1330    24.7530    19.1780 ha         1 VU7       0.120000
     48 H18        -19.8990    24.2810    23.2700 ha         1 VU7       0.133000
@<TRIPOS>BOND
     1     1    17 1   
     2     1    31 1   
     3     1    32 1   
     4     1    33 1   
     5     2     3 1   
     6     2    18 1   
     7     2    19 2   
     8     3     4 ar  
     9     3    10 ar  
    10     4     5 1   
    11     4    20 ar  
    12     5    34 1   
    13     5    35 1   
    14     5    36 1   
    15     6     7 ar  
    16     6    20 ar  
    17     7     8 ar  
    18     7    10 ar  
    19     8    21 ar  
    20     8    37 1   
    21     9    10 ar  
    22     9    22 ar  
    23     9    38 1   
    24    11    12 ar  
    25    11    14 ar  
    26    11    20 1   
    27    12    24 ar  
    28    12    39 1   
    29    13    15 1   
    30    13    24 ar  
    31    13    25 ar  
    32    14    25 ar  
    33    14    40 1   
    34    15    26 ar  
    35    15    29 ar  
    36    16    27 ar  
    37    16    28 ar  
    38    16    41 1   
    39    17    18 1   
    40    18    42 1   
    41    21    22 ar  
    42    21    43 1   
    43    22    23 1   
    44    24    44 1   
    45    25    45 1   
    46    26    27 ar  
    47    26    46 1   
    48    27    47 1   
    49    28    29 ar  
    50    28    48 1   
    51    29    30 1   
@<TRIPOS>SUBSTRUCTURE
     1 VU7         1 TEMP              0 ****  ****    0 ROOT
