@<TRIPOS>MOLECULE
VU9
   26    27     1     0     0
SMALL
No Charge or Current Charge


@<TRIPOS>ATOM
      1 N1          28.9750    18.0780    43.1060 n7         1 VU9      -0.862400
      2 C2          29.4620    15.3290    38.6470 ca         1 VU9      -0.164500
      3 C4          28.9690    15.9970    41.6270 c6         1 VU9       0.199300
      4 C5          29.6840    16.8120    42.7580 c6         1 VU9       0.149300
      5 C6          28.7490    18.9100    41.8890 c6         1 VU9       0.149300
      6 C9          27.1480    15.8170    37.1390 ca         1 VU9      -0.081000
      7 C           28.1320    14.9450    36.6480 ca         1 VU9      -0.147000
      8 C8          27.3230    16.4450    38.3850 ca         1 VU9      -0.164500
      9 C3          28.4830    16.2060    39.1540 ca         1 VU9       0.297000
     10 C1          29.2910    14.7010    37.4010 ca         1 VU9      -0.081000
     11 N           28.6780    16.8280    40.4110 nh         1 VU9      -0.795400
     12 C7          28.0170    18.1350    40.7400 c6         1 VU9       0.199300
     13 H7          29.5440    18.6090    43.7770 hn         1 VU9       0.412000
     14 H3          28.0270    15.5940    42.0270 h1         1 VU9       0.044700
     15 H4          29.6020    15.1360    41.3710 h1         1 VU9       0.044700
     16 H5          29.7770    16.1830    43.6560 h1         1 VU9       0.039700
     17 H6          30.7040    17.0540    42.4240 h1         1 VU9       0.039700
     18 H8          29.7210    19.2600    41.5100 h1         1 VU9       0.039700
     19 H9          28.1640    19.8030    42.1560 h1         1 VU9       0.039700
     20 H13         26.2480    16.0060    36.5570 ha         1 VU9       0.108500
     21 H           27.9970    14.4590    35.6830 ha         1 VU9       0.113000
     22 H12         26.5460    17.1070    38.7530 ha         1 VU9       0.111000
     23 H1          30.0560    14.0280    37.0200 ha         1 VU9       0.108500
     24 H10         27.9910    18.7840    39.8520 h1         1 VU9       0.044700
     25 H11         26.9750    17.9570    41.0460 h1         1 VU9       0.044700
     26 H2          30.3690    15.1430    39.2150 ha         1 VU9       0.111000
@<TRIPOS>BOND
     1     1     4 1   
     2     1     5 1   
     3     1    13 1   
     4     2     9 ar  
     5     2    10 ar  
     6     2    26 1   
     7     3     4 1   
     8     3    11 1   
     9     3    14 1   
    10     3    15 1   
    11     4    16 1   
    12     4    17 1   
    13     5    12 1   
    14     5    18 1   
    15     5    19 1   
    16     6     7 ar  
    17     6     8 ar  
    18     6    20 1   
    19     7    10 ar  
    20     7    21 1   
    21     8     9 ar  
    22     8    22 1   
    23     9    11 1   
    24    10    23 1   
    25    11    12 1   
    26    12    24 1   
    27    12    25 1   
@<TRIPOS>SUBSTRUCTURE
     1 VU9         1 TEMP              0 ****  ****    0 ROOT
