@<TRIPOS>MOLECULE
VU9
   26    27     1     0     0
SMALL
abcg2


@<TRIPOS>ATOM
      1 N1          28.8610    17.9680    43.0390 n7         1 VU9      -0.862400
      2 C2          29.3590    15.1840    38.7480 ca         1 VU9      -0.164500
      3 C4          29.1600    16.0630    41.5510 c6         1 VU9       0.199300
      4 C5          29.7760    16.8930    42.6650 c6         1 VU9       0.149300
      5 C6          28.6220    18.8360    41.8890 c6         1 VU9       0.149300
      6 C9          27.2620    15.9980    37.1330 ca         1 VU9      -0.081000
      7 C           28.0740    14.9530    36.7120 ca         1 VU9      -0.147000
      8 C8          27.4830    16.6330    38.3520 ca         1 VU9      -0.164500
      9 C3          28.5440    16.2450    39.1870 ca         1 VU9       0.297000
     10 C1          29.1240    14.5540    37.5360 ca         1 VU9      -0.081000
     11 N           28.8230    16.9010    40.3940 nh         1 VU9      -0.795400
     12 C7          27.9860    18.0410    40.7580 c6         1 VU9       0.199300
     13 H7          29.2570    18.5080    43.8000 hn         1 VU9       0.412000
     14 H3          28.2530    15.5660    41.9290 h1         1 VU9       0.044700
     15 H4          29.8650    15.2920    41.2560 h1         1 VU9       0.044700
     16 H5          29.9540    16.2520    43.5300 h1         1 VU9       0.039700
     17 H6          30.7480    17.2800    42.3200 h1         1 VU9       0.039700
     18 H8          29.5540    19.2900    41.5160 h1         1 VU9       0.039700
     19 H9          27.9460    19.6420    42.1780 h1         1 VU9       0.039700
     20 H13         26.4330    16.3240    36.5160 ha         1 VU9       0.108500
     21 H           27.8960    14.4590    35.7650 ha         1 VU9       0.113000
     22 H12         26.8140    17.4260    38.6490 ha         1 VU9       0.111000
     23 H1          29.7780    13.7460    37.2290 ha         1 VU9       0.108500
     24 H10         27.8820    18.6940    39.8930 h1         1 VU9       0.044700
     25 H11         26.9790    17.7140    41.0600 h1         1 VU9       0.044700
     26 H2          30.2000    14.8630    39.3460 ha         1 VU9       0.111000
@<TRIPOS>BOND
     1     1     4 1   
     2     1     5 1   
     3     1    13 1   
     4     2     9 ar  
     5     2    10 ar  
     6     2    26 1   
     7     3     4 1   
     8     3    11 1   
     9     3    14 1   
    10     3    15 1   
    11     4    16 1   
    12     4    17 1   
    13     5    12 1   
    14     5    18 1   
    15     5    19 1   
    16     6     7 ar  
    17     6     8 ar  
    18     6    20 1   
    19     7    10 ar  
    20     7    21 1   
    21     8     9 ar  
    22     8    22 1   
    23     9    11 1   
    24    10    23 1   
    25    11    12 1   
    26    12    24 1   
    27    12    25 1   
@<TRIPOS>SUBSTRUCTURE
     1 VU9         1 TEMP              0 ****  ****    0 ROOT
