@<TRIPOS>MOLECULE
VUA
   46    48     1     0     0
SMALL
No Charge or Current Charge


@<TRIPOS>ATOM
      1 N1          -8.2330   -11.2720    13.2350 nb         1 VUA      -0.284000
      2 N3          -9.2240   -11.9230     9.2370 nh         1 VUA      -0.783300
      3 C4          -5.2070   -10.3410    11.0210 ca         1 VUA      -0.101500
      4 C5          -5.6530    -8.8090     9.1860 ca         1 VUA      -0.101500
      5 C6          -8.8610   -12.8120    11.5140 ca         1 VUA      -0.348000
      6 C7          -8.5240   -12.5240    12.8430 ca         1 VUA       0.165900
      7 C8          -5.6180    -9.0710    10.5700 ca         1 VUA      -0.073300
      8 C10         -8.2780   -10.3260    12.2850 ca         1 VUA       0.416900
      9 C13         -9.8720   -13.1800     8.7600 c6         1 VUA       0.227300
     10 C15         -9.8960   -12.2670     6.3650 c6         1 VUA      -0.060700
     11 C17         -6.0040    -7.9800    11.5670 c3         1 VUA      -0.065100
     12 C1          -4.8830   -11.0720     8.7210 ca         1 VUA      -0.111000
     13 C2          -4.8470   -11.3400    10.1000 ca         1 VUA      -0.108000
     14 C3          -5.2840    -9.8050     8.2650 ca         1 VUA      -0.108000
     15 C9          -8.8910   -11.7460    10.5990 ca         1 VUA       0.443900
     16 C11        -10.7220   -12.9410     7.4880 c6         1 VUA      -0.095400
     17 C12         -9.2760   -10.9570     6.9100 c6         1 VUA      -0.095400
     18 C14         -8.4340   -11.2160     8.1820 c6         1 VUA       0.227300
     19 C16        -10.7490   -12.0140     5.0940 c3         1 VUA      -0.086100
     20 C18         -7.5170    -7.9100    11.8840 c3         1 VUA       0.228800
     21 N2          -8.6000   -10.4940    10.9930 nb         1 VUA      -0.328000
     22 N4          -7.9640    -9.0480    12.7150 nu         1 VUA      -0.914100
     23 H2          -5.9650    -7.8320     8.8230 ha         1 VUA       0.108500
     24 H3          -9.0750   -13.8330    11.2200 ha         1 VUA       0.126000
     25 H4          -8.4820   -13.3030    13.6020 h4         1 VUA       0.010100
     26 H5         -10.5390   -13.5890     9.5340 h1         1 VUA       0.054950
     27 H6          -9.1060   -13.9420     8.5490 h1         1 VUA       0.054950
     28 H7          -9.0840   -12.9460     6.0670 hc         1 VUA       0.042700
     29 H8          -5.4450    -8.1030    12.5030 hc         1 VUA       0.049200
     30 H9          -5.6980    -7.0060    11.1680 hc         1 VUA       0.049200
     31 H10         -4.6020   -11.8440     8.0090 ha         1 VUA       0.108000
     32 H11         -4.5390   -12.3200    10.4550 ha         1 VUA       0.109500
     33 H12         -5.3120    -9.5960     7.1970 ha         1 VUA       0.109500
     34 H13        -11.5860   -12.3130     7.7440 hc         1 VUA       0.049450
     35 H14        -11.1270   -13.8990     7.1360 hc         1 VUA       0.049450
     36 H15         -8.6420   -10.4910     6.1440 hc         1 VUA       0.049450
     37 H16        -10.0700   -10.2340     7.1420 hc         1 VUA       0.049450
     38 H17         -7.5530   -11.8170     7.9140 h1         1 VUA       0.054950
     39 H18         -8.0630   -10.2450     8.5410 h1         1 VUA       0.054950
     40 H19        -11.1620   -12.9520     4.7030 hc         1 VUA       0.034367
     41 H20        -11.5890   -11.3410     5.3040 hc         1 VUA       0.034367
     42 H21        -10.1480   -11.5600     4.2980 hc         1 VUA       0.034367
     43 H22         -7.6970    -6.9760    12.4360 h1         1 VUA       0.061200
     44 H23         -8.0950    -7.8470    10.9510 h1         1 VUA       0.061200
     45 H24         -7.7600    -8.9900    13.7130 hn         1 VUA       0.490000
     46 H1          -5.1750   -10.5560    12.0860 ha         1 VUA       0.108500
@<TRIPOS>BOND
     1     1     6 ar  
     2     1     8 ar  
     3     2     9 1   
     4     2    15 1   
     5     2    18 1   
     6     3     7 ar  
     7     3    13 ar  
     8     3    46 1   
     9     4     7 ar  
    10     4    14 ar  
    11     4    23 1   
    12     5     6 ar  
    13     5    15 ar  
    14     5    24 1   
    15     6    25 1   
    16     7    11 1   
    17     8    21 ar  
    18     8    22 1   
    19     9    16 1   
    20     9    26 1   
    21     9    27 1   
    22    10    16 1   
    23    10    17 1   
    24    10    19 1   
    25    10    28 1   
    26    11    20 1   
    27    11    29 1   
    28    11    30 1   
    29    12    13 ar  
    30    12    14 ar  
    31    12    31 1   
    32    13    32 1   
    33    14    33 1   
    34    15    21 ar  
    35    16    34 1   
    36    16    35 1   
    37    17    18 1   
    38    17    36 1   
    39    17    37 1   
    40    18    38 1   
    41    18    39 1   
    42    19    40 1   
    43    19    41 1   
    44    19    42 1   
    45    20    22 1   
    46    20    43 1   
    47    20    44 1   
    48    22    45 1   
@<TRIPOS>SUBSTRUCTURE
     1 VUA         1 TEMP              0 ****  ****    0 ROOT
