@<TRIPOS>MOLECULE
VUA
   46    48     1     0     0
SMALL
bcc


@<TRIPOS>ATOM
      1 N1          -8.4730   -11.0740    12.8690 nb         1 VUA      -0.810000
      2 N3          -8.7070   -11.8830     8.8450 nh         1 VUA      -0.783300
      3 C4          -5.1850   -10.3080    11.6310 ca         1 VUA      -0.119500
      4 C5          -5.3860    -9.4600     9.4030 ca         1 VUA      -0.119500
      5 C6          -8.7990   -12.6970    11.1370 ca         1 VUA      -0.496600
      6 C7          -8.7130   -12.3140    12.4530 ca         1 VUA       0.494200
      7 C8          -5.4760    -9.2480    10.7760 ca         1 VUA      -0.073300
      8 C10         -8.3210   -10.1820    11.8830 ca         1 VUA       0.942900
      9 C13         -9.0100   -13.1610     8.2350 c6         1 VUA       0.227300
     10 C15        -10.1820   -11.9500     6.3480 c6         1 VUA      -0.060700
     11 C17         -5.9710    -7.9380    11.3170 c3         1 VUA      -0.065100
     12 C1          -4.7790   -11.7600     9.7560 ca         1 VUA      -0.129000
     13 C2          -4.8470   -11.5570    11.1270 ca         1 VUA      -0.126000
     14 C3          -5.0400   -10.7030     8.8940 ca         1 VUA      -0.126000
     15 C9          -8.6470   -11.6690    10.1760 ca         1 VUA       0.772200
     16 C11        -10.2720   -13.0680     7.3840 c6         1 VUA      -0.095400
     17 C12         -9.7800   -10.6440     7.0290 c6         1 VUA      -0.095400
     18 C14         -8.5280   -10.8170     7.8780 c6         1 VUA       0.227300
     19 C16        -11.4780   -11.8030     5.5650 c3         1 VUA      -0.086100
     20 C18         -7.5050    -7.8990    11.4050 c3         1 VUA       0.228800
     21 N2          -8.4380   -10.4180    10.5850 nb         1 VUA      -0.854000
     22 N4          -8.0590    -8.9070    12.2730 nu         1 VUA      -0.858900
     23 H2          -5.6040    -8.6450     8.7220 ha         1 VUA       0.126500
     24 H3          -8.9750   -13.7320    10.8910 ha         1 VUA       0.144000
     25 H4          -8.8390   -13.0620    13.2300 h4         1 VUA       0.010100
     26 H5          -9.1310   -13.9340     8.9890 h1         1 VUA       0.054950
     27 H6          -8.1610   -13.4650     7.6120 h1         1 VUA       0.054950
     28 H7          -9.3820   -12.2120     5.6420 hc         1 VUA       0.042700
     29 H8          -5.5510    -7.7520    12.3090 hc         1 VUA       0.049200
     30 H9          -5.6490    -7.1130    10.6760 hc         1 VUA       0.049200
     31 H10         -4.5170   -12.7330     9.3610 ha         1 VUA       0.126000
     32 H11         -4.6390   -12.3740    11.8070 ha         1 VUA       0.127500
     33 H12         -4.9830   -10.8490     7.8220 ha         1 VUA       0.127500
     34 H13        -11.1300   -12.8920     8.0420 hc         1 VUA       0.049450
     35 H14        -10.4400   -14.0290     6.8920 hc         1 VUA       0.049450
     36 H15         -9.6000    -9.8690     6.2780 hc         1 VUA       0.049450
     37 H16        -10.6010   -10.2850     7.6600 hc         1 VUA       0.049450
     38 H17         -7.6800   -11.0740     7.2310 h1         1 VUA       0.054950
     39 H18         -8.2680    -9.9020     8.4000 h1         1 VUA       0.054950
     40 H19        -11.7350   -12.7260     5.0420 hc         1 VUA       0.034367
     41 H20        -12.3100   -11.5570     6.2300 hc         1 VUA       0.034367
     42 H21        -11.4020   -11.0080     4.8220 hc         1 VUA       0.034367
     43 H22         -7.8150    -6.9200    11.7740 h1         1 VUA       0.061200
     44 H23         -7.9310    -8.0200    10.4110 h1         1 VUA       0.061200
     45 H24         -7.8750    -8.8050    13.2580 hn         1 VUA       0.434800
     46 H1          -5.2420   -10.1610    12.7030 ha         1 VUA       0.126500
@<TRIPOS>BOND
     1     1     6 ar  
     2     1     8 ar  
     3     2     9 1   
     4     2    15 1   
     5     2    18 1   
     6     3     7 ar  
     7     3    13 ar  
     8     3    46 1   
     9     4     7 ar  
    10     4    14 ar  
    11     4    23 1   
    12     5     6 ar  
    13     5    15 ar  
    14     5    24 1   
    15     6    25 1   
    16     7    11 1   
    17     8    21 ar  
    18     8    22 1   
    19     9    16 1   
    20     9    26 1   
    21     9    27 1   
    22    10    16 1   
    23    10    17 1   
    24    10    19 1   
    25    10    28 1   
    26    11    20 1   
    27    11    29 1   
    28    11    30 1   
    29    12    13 ar  
    30    12    14 ar  
    31    12    31 1   
    32    13    32 1   
    33    14    33 1   
    34    15    21 ar  
    35    16    34 1   
    36    16    35 1   
    37    17    18 1   
    38    17    36 1   
    39    17    37 1   
    40    18    38 1   
    41    18    39 1   
    42    19    40 1   
    43    19    41 1   
    44    19    42 1   
    45    20    22 1   
    46    20    43 1   
    47    20    44 1   
    48    22    45 1   
@<TRIPOS>SUBSTRUCTURE
     1 VUA         1 TEMP              0 ****  ****    0 ROOT
