@<TRIPOS>MOLECULE
VUB
   44    45     1     0     0
SMALL
No Charge or Current Charge


@<TRIPOS>ATOM
      1 C3         -13.5350    -7.2830   -18.6670 c          1 VUB       0.716000
      2 O3         -13.7440    -6.0960   -18.4700 o          1 VUB      -0.701500
      3 CA3        -13.6100    -7.7840   -20.1160 c3         1 VUB      -0.111400
      4 N3         -14.9640    -7.6590   -20.7100 na         1 VUB      -0.088500
      5 C1         -15.5170    -6.5760   -21.4110 cc         1 VUB       0.315200
      6 CA1        -14.8920    -5.2320   -21.6480 ce         1 VUB       0.418300
      7 CB1        -15.5170    -4.3590   -22.7360 c3         1 VUB      -0.104700
      8 CG1        -16.6550    -3.4210   -22.2440 c3         1 VUB      -0.053700
      9 CD4        -17.3430    -2.7090   -23.4320 c3         1 VUB      -0.087600
     10 CD3        -16.1710    -2.3950   -21.1930 c3         1 VUB      -0.087600
     11 N1         -13.7980    -4.8420   -21.0620 n2         1 VUB      -0.767100
     12 C2         -15.9180    -8.6510   -20.7140 cc         1 VUB       0.028100
     13 O2         -15.7250    -9.8520   -20.1220 oh         1 VUB      -0.517100
     14 CA2        -17.0000    -8.1790   -21.4130 cd         1 VUB       0.132300
     15 N2         -16.7460    -6.8960   -21.8390 nd         1 VUB      -0.663000
     16 CB2        -18.3160    -8.8640   -21.7050 c3         1 VUB      -0.024400
     17 CG2        -18.2280   -10.3830   -21.8030 ca         1 VUB      -0.093300
     18 CD1        -18.7920   -11.2000   -20.8030 ca         1 VUB      -0.064000
     19 CE1        -18.6900   -12.5990   -20.8920 ca         1 VUB      -0.177500
     20 CD2        -17.5650   -10.9800   -22.8930 ca         1 VUB      -0.064000
     21 CE2        -17.4650   -12.3800   -22.9790 ca         1 VUB      -0.177500
     22 CZ         -18.0280   -13.1880   -21.9800 ca         1 VUB       0.121100
     23 OH         -17.9270   -14.5430   -22.0720 oh         1 VUB      -0.544100
     24 OXT        -13.2610    -8.0830   -17.7850 o          1 VUB      -0.701500
     25 HA32       -13.3090    -8.8380   -20.1320 h1         1 VUB       0.050200
     26 HA31       -12.8810    -7.2330   -20.7200 h1         1 VUB       0.050200
     27 HB1        -14.7400    -3.7540   -23.2200 hc         1 VUB       0.048700
     28 HB1A       -15.9140    -4.9980   -23.5340 hc         1 VUB       0.048700
     29 HG1        -17.4170    -4.0470   -21.7620 hc         1 VUB       0.069700
     30 HD4        -18.1780    -2.0910   -23.0830 hc         1 VUB       0.029200
     31 HD4A       -16.6340    -2.0620   -23.9630 hc         1 VUB       0.029200
     32 HD4B       -17.7410    -3.4410   -24.1460 hc         1 VUB       0.029200
     33 HD3        -16.9950    -1.7410   -20.8820 hc         1 VUB       0.029200
     34 HD3A       -15.7930    -2.8980   -20.2960 hc         1 VUB       0.029200
     35 HD3B       -15.3700    -1.7660   -21.6000 hc         1 VUB       0.029200
     36 H          -13.7190    -5.3080   -20.1380 hn         1 VUB       0.398400
     37 HB2        -18.7280    -8.4740   -22.6440 hc         1 VUB       0.042700
     38 H15        -19.0410    -8.5800   -20.9330 hc         1 VUB       0.042700
     39 HD1        -19.3080   -10.7520   -19.9550 ha         1 VUB       0.113000
     40 HE1        -19.1300   -13.2190   -20.1130 ha         1 VUB       0.110500
     41 HD2        -17.1230   -10.3590   -23.6690 ha         1 VUB       0.113000
     42 HE2        -16.9520   -12.8350   -23.8220 ha         1 VUB       0.110500
     43 HOH        -18.3750   -14.9400   -21.2950 ho         1 VUB       0.456000
     44 HO2        -16.5070   -10.4070   -20.3390 ho         1 VUB       0.466000
@<TRIPOS>BOND
     1     1     2 1   
     2     1     3 1   
     3     1    24 1   
     4     3     4 1   
     5     3    25 1   
     6     3    26 1   
     7     4     5 1   
     8     4    12 1   
     9     5     6 1   
    10     5    15 2   
    11     6     7 1   
    12     6    11 2   
    13     7     8 1   
    14     7    27 1   
    15     7    28 1   
    16     8     9 1   
    17     8    10 1   
    18     8    29 1   
    19     9    30 1   
    20     9    31 1   
    21     9    32 1   
    22    10    33 1   
    23    10    34 1   
    24    10    35 1   
    25    11    36 1   
    26    12    13 1   
    27    12    14 2   
    28    13    44 1   
    29    14    15 1   
    30    14    16 1   
    31    16    17 1   
    32    16    37 1   
    33    16    38 1   
    34    17    18 ar  
    35    17    20 ar  
    36    18    19 ar  
    37    18    39 1   
    38    19    22 ar  
    39    19    40 1   
    40    20    21 ar  
    41    20    41 1   
    42    21    22 ar  
    43    21    42 1   
    44    22    23 1   
    45    23    43 1   
@<TRIPOS>SUBSTRUCTURE
     1 VUB         1 TEMP              0 ****  ****    0 ROOT
