@<TRIPOS>MOLECULE
VUB
   44    45     1     0     0
SMALL
abcg2


@<TRIPOS>ATOM
      1 C3         -13.6780    -5.8670   -18.6630 c          1 VUB       0.716000
      2 O3         -12.5360    -5.5190   -18.3210 o          1 VUB      -0.701500
      3 CA3        -13.7530    -7.3050   -19.2470 c3         1 VUB      -0.111400
      4 N3         -14.9710    -7.5790   -19.9780 na         1 VUB      -0.088500
      5 C1         -15.4430    -6.9720   -21.1160 cc         1 VUB       0.315200
      6 CA1        -14.7450    -6.0080   -21.9720 ce         1 VUB       0.418300
      7 CB1        -15.6210    -5.3120   -22.9810 c3         1 VUB      -0.104700
      8 CG1        -16.5730    -4.2650   -22.3860 c3         1 VUB      -0.053700
      9 CD4        -17.4450    -3.6840   -23.4930 c3         1 VUB      -0.087600
     10 CD3        -15.8140    -3.1610   -21.6590 c3         1 VUB      -0.087600
     11 N1         -13.5040    -5.7160   -21.9600 n2         1 VUB      -0.767100
     12 C2         -15.9690    -8.3860   -19.5380 cc         1 VUB       0.028100
     13 O2         -15.7900    -9.0960   -18.4230 oh         1 VUB      -0.517100
     14 CA2        -17.0170    -8.2700   -20.4210 cd         1 VUB       0.132300
     15 N2         -16.6600    -7.3900   -21.3870 nd         1 VUB      -0.663000
     16 CB2        -18.3210    -9.0010   -20.4400 c3         1 VUB      -0.024400
     17 CG2        -18.3170   -10.1400   -21.4300 ca         1 VUB      -0.093300
     18 CD1        -17.8100   -11.3880   -21.0830 ca         1 VUB      -0.064000
     19 CE1        -17.7530   -12.4280   -22.0000 ca         1 VUB      -0.177500
     20 CD2        -18.7700    -9.9630   -22.7340 ca         1 VUB      -0.064000
     21 CE2        -18.7210   -10.9900   -23.6640 ca         1 VUB      -0.177500
     22 CZ         -18.2080   -12.2330   -23.3010 ca         1 VUB       0.121100
     23 OH         -18.1800   -13.2040   -24.2390 oh         1 VUB      -0.544100
     24 OXT        -14.7470    -5.2470   -18.5580 o          1 VUB      -0.701500
     25 HA32       -13.7040    -8.0030   -18.4110 h1         1 VUB       0.050200
     26 HA31       -12.8830    -7.5370   -19.8620 h1         1 VUB       0.050200
     27 HB1        -14.9620    -4.8230   -23.7020 hc         1 VUB       0.048700
     28 HB1A       -16.2100    -6.0540   -23.5250 hc         1 VUB       0.048700
     29 HG1        -17.2280    -4.7650   -21.6670 hc         1 VUB       0.069700
     30 HD4        -18.1500    -2.9520   -23.0960 hc         1 VUB       0.029200
     31 HD4A       -16.8360    -3.1820   -24.2490 hc         1 VUB       0.029200
     32 HD4B       -18.0220    -4.4620   -23.9970 hc         1 VUB       0.029200
     33 HD3        -16.5010    -2.4030   -21.2780 hc         1 VUB       0.029200
     34 HD3A       -15.2500    -3.5460   -20.8090 hc         1 VUB       0.029200
     35 HD3B       -15.1090    -2.6630   -22.3290 hc         1 VUB       0.029200
     36 H          -12.9790    -6.2340   -21.2660 hn         1 VUB       0.398400
     37 HB2        -19.1190    -8.2980   -20.6890 hc         1 VUB       0.042700
     38 H15        -18.5540    -9.3800   -19.4410 hc         1 VUB       0.042700
     39 HD1        -17.4490   -11.5590   -20.0750 ha         1 VUB       0.113000
     40 HE1        -17.3560   -13.3910   -21.6980 ha         1 VUB       0.110500
     41 HD2        -19.1730    -9.0020   -23.0340 ha         1 VUB       0.113000
     42 HE2        -19.0800   -10.8310   -24.6730 ha         1 VUB       0.110500
     43 HOH        -17.8050   -14.0130   -23.8730 ho         1 VUB       0.456000
     44 HO2        -16.5460    -9.6740   -18.2670 ho         1 VUB       0.466000
@<TRIPOS>BOND
     1     1     2 1   
     2     1     3 1   
     3     1    24 1   
     4     3     4 1   
     5     3    25 1   
     6     3    26 1   
     7     4     5 1   
     8     4    12 1   
     9     5     6 1   
    10     5    15 2   
    11     6     7 1   
    12     6    11 2   
    13     7     8 1   
    14     7    27 1   
    15     7    28 1   
    16     8     9 1   
    17     8    10 1   
    18     8    29 1   
    19     9    30 1   
    20     9    31 1   
    21     9    32 1   
    22    10    33 1   
    23    10    34 1   
    24    10    35 1   
    25    11    36 1   
    26    12    13 1   
    27    12    14 2   
    28    13    44 1   
    29    14    15 1   
    30    14    16 1   
    31    16    17 1   
    32    16    37 1   
    33    16    38 1   
    34    17    18 ar  
    35    17    20 ar  
    36    18    19 ar  
    37    18    39 1   
    38    19    22 ar  
    39    19    40 1   
    40    20    21 ar  
    41    20    41 1   
    42    21    22 ar  
    43    21    42 1   
    44    22    23 1   
    45    23    43 1   
@<TRIPOS>SUBSTRUCTURE
     1 VUB         1 TEMP              0 ****  ****    0 ROOT
