@<TRIPOS>MOLECULE
VUD
   43    46     1     0     0
SMALL
abcg2


@<TRIPOS>ATOM
      1 C4           3.6170   -22.9730    41.8430 cc         1 VUD      -0.102100
      2 C7           1.7560   -24.2470    43.5550 c          1 VUD       0.554200
      3 C6           1.3260   -23.4570    42.4300 cd         1 VUD      -0.306200
      4 C13          5.9060   -20.8350    40.3830 cc         1 VUD       0.245900
      5 O15          5.7150   -24.0790    44.5880 os         1 VUD      -0.360100
      6 C20          5.4250   -18.2570    46.2460 ca         1 VUD       0.154000
      7 C21          5.5730   -18.5110    47.6130 ca         1 VUD      -0.133000
      8 C18          5.5410   -20.5870    45.7460 ca         1 VUD      -0.072000
      9 C16          5.6840   -22.9390    45.3150 ca         1 VUD       0.028100
     10 C19          5.4050   -19.2550    45.3150 ca         1 VUD      -0.124000
     11 C1           5.9170   -25.3590    42.6110 c3         1 VUD      -0.091100
     12 C2           5.5040   -24.0160    43.1880 c3         1 VUD       0.201500
     13 C3           4.0500   -23.7290    42.8900 cd         1 VUD       0.065400
     14 C5           2.2240   -22.8460    41.6200 cc         1 VUD      -0.082000
     15 N8           3.1350   -24.3200    43.6890 ns         1 VUD      -0.353100
     16 O9           1.0280   -24.8240    44.3510 o          1 VUD      -0.540000
     17 N10          4.5350   -22.3170    40.9950 na         1 VUD       0.203900
     18 C11          4.8770   -22.6630    39.7350 cd         1 VUD      -0.156000
     19 C12          5.7730   -21.7200    39.2980 cc         1 VUD      -0.229000
     20 N14          5.1500   -21.2000    41.4000 nd         1 VUD      -0.530800
     21 C17          5.5340   -21.6790    44.8360 ca         1 VUD      -0.123000
     22 C22          5.7040   -19.8090    48.0380 ca         1 VUD      -0.071000
     23 C23          5.6940   -20.8780    47.1190 ca         1 VUD       0.290000
     24 N24          5.8280   -22.1460    47.5800 nb         1 VUD      -0.743000
     25 C25          5.8300   -23.1420    46.7370 ca         1 VUD       0.622900
     26 N26          6.0170   -24.4010    47.2020 nv         1 VUD      -1.064900
     27 H2           0.2630   -23.3590    42.2580 ha         1 VUD       0.217000
     28 H3           6.5210   -19.9510    40.4550 h4         1 VUD       0.042100
     29 H4           5.5840   -17.6910    48.3190 ha         1 VUD       0.132000
     30 H5           5.2870   -19.0310    44.2610 ha         1 VUD       0.138000
     31 H6           6.9760   -25.5340    42.7990 hc         1 VUD       0.057033
     32 H7           5.3420   -26.1770    43.0430 hc         1 VUD       0.057033
     33 H8           5.7610   -25.3630    41.5330 hc         1 VUD       0.057033
     34 H9           6.1270   -23.2330    42.7490 h1         1 VUD       0.089700
     35 H10          1.8830   -22.2470    40.7850 ha         1 VUD       0.201000
     36 H11          4.4670   -23.5390    39.2600 h4         1 VUD       0.158000
     37 H12          6.2620   -21.6750    38.3400 ha         1 VUD       0.150000
     38 H13          5.4150   -21.4680    43.7790 ha         1 VUD       0.153000
     39 H14          5.8190   -20.0300    49.0920 ha         1 VUD       0.132000
     40 H15          5.9310   -24.5360    48.1950 hn         1 VUD       0.485500
     41 H16          5.7630   -25.1890    46.6330 hn         1 VUD       0.485500
     42 H1           3.4680   -24.8660    44.4760 hn         1 VUD       0.338500
     43 F27          5.3010   -16.9780    45.8480 f          1 VUD      -0.181000
@<TRIPOS>BOND
     1     1    13 2   
     2     1    14 1   
     3     1    17 1   
     4     2     3 1   
     5     2    15 1   
     6     2    16 2   
     7     3    14 2   
     8     3    27 1   
     9     4    19 1   
    10     4    20 2   
    11     4    28 1   
    12     5     9 1   
    13     5    12 1   
    14     6     7 ar  
    15     6    10 ar  
    16     6    43 1   
    17     7    22 ar  
    18     7    29 1   
    19     8    10 ar  
    20     8    21 ar  
    21     8    23 ar  
    22     9    21 ar  
    23     9    25 ar  
    24    10    30 1   
    25    11    12 1   
    26    11    31 1   
    27    11    32 1   
    28    11    33 1   
    29    12    13 1   
    30    12    34 1   
    31    13    15 1   
    32    14    35 1   
    33    15    42 1   
    34    17    18 1   
    35    17    20 1   
    36    18    19 2   
    37    18    36 1   
    38    19    37 1   
    39    21    38 1   
    40    22    23 ar  
    41    22    39 1   
    42    23    24 ar  
    43    24    25 ar  
    44    25    26 1   
    45    26    40 1   
    46    26    41 1   
@<TRIPOS>SUBSTRUCTURE
     1 VUD         1 TEMP              0 ****  ****    0 ROOT
