@<TRIPOS>MOLECULE
VUD
   43    46     1     0     0
SMALL
No Charge or Current Charge


@<TRIPOS>ATOM
      1 C4           3.7350   -22.9600    41.5730 cc         1 VUD      -0.102100
      2 C7           1.9630   -23.7960    43.6530 c          1 VUD       0.554200
      3 C6           1.4660   -23.2370    42.3880 cd         1 VUD      -0.306200
      4 C13          6.3310   -21.8640    39.4850 cc         1 VUD       0.245900
      5 O15          5.8140   -23.9720    44.6070 os         1 VUD      -0.360100
      6 C20          5.0740   -18.2680    46.7380 ca         1 VUD       0.154000
      7 C21          5.2350   -18.6050    48.0890 ca         1 VUD      -0.133000
      8 C18          5.4070   -20.5960    46.1100 ca         1 VUD      -0.072000
      9 C16          5.7340   -22.9160    45.5120 ca         1 VUD       0.028100
     10 C19          5.1580   -19.2570    45.7470 ca         1 VUD      -0.124000
     11 C1           6.2060   -25.0970    42.5360 c3         1 VUD      -0.091100
     12 C2           5.7030   -23.7890    43.1740 c3         1 VUD       0.201500
     13 C3           4.2520   -23.4820    42.7670 cd         1 VUD       0.065400
     14 C5           2.3110   -22.8350    41.3750 cc         1 VUD      -0.082000
     15 N8           3.3290   -23.8780    43.7290 ns         1 VUD      -0.353100
     16 O9           1.2380   -24.1630    44.5620 o          1 VUD      -0.540000
     17 N10          4.6520   -22.5940    40.5700 na         1 VUD       0.203900
     18 C11          4.2840   -22.6540    39.2130 cd         1 VUD      -0.156000
     19 C12          5.3670   -22.1910    38.5320 cc         1 VUD      -0.229000
     20 N14          5.9400   -22.0840    40.7220 nd         1 VUD      -0.530800
     21 C17          5.4880   -21.5860    45.1110 ca         1 VUD      -0.123000
     22 C22          5.4830   -19.9420    48.4530 ca         1 VUD      -0.071000
     23 C23          5.5730   -20.9550    47.4780 ca         1 VUD       0.290000
     24 N24          5.8130   -22.2320    47.8590 nb         1 VUD      -0.743000
     25 C25          5.8930   -23.1550    46.9040 ca         1 VUD       0.622900
     26 N26          6.1280   -24.3600    47.4490 nv         1 VUD      -1.064900
     27 H2           0.3880   -23.1630    42.3100 ha         1 VUD       0.217000
     28 H3           7.3210   -21.4650    39.3100 h4         1 VUD       0.042100
     29 H4           5.1680   -17.8340    48.8520 ha         1 VUD       0.132000
     30 H5           5.0300   -18.9790    44.7040 ha         1 VUD       0.138000
     31 H6           7.2340   -25.3080    42.8510 hc         1 VUD       0.057033
     32 H7           5.5700   -25.9410    42.8280 hc         1 VUD       0.057033
     33 H8           6.1930   -25.0200    41.4420 hc         1 VUD       0.057033
     34 H9           6.3780   -22.9800    42.8810 h1         1 VUD       0.089700
     35 H10          1.9120   -22.4130    40.4550 ha         1 VUD       0.201000
     36 H11          3.3340   -23.0310    38.8560 h4         1 VUD       0.158000
     37 H12          5.4840   -22.0910    37.4580 ha         1 VUD       0.150000
     38 H13          5.3570   -21.3130    44.0670 ha         1 VUD       0.153000
     39 H14          5.6070   -20.1990    49.5010 ha         1 VUD       0.132000
     40 H15          5.9250   -24.4300    48.4380 hn         1 VUD       0.485500
     41 H16          5.9290   -25.1710    46.8740 hn         1 VUD       0.485500
     42 H1           3.6740   -24.2690    44.5960 hn         1 VUD       0.338500
     43 F27          4.8350   -16.9850    46.3890 f          1 VUD      -0.181000
@<TRIPOS>BOND
     1     1    13 2   
     2     1    14 1   
     3     1    17 1   
     4     2     3 1   
     5     2    15 1   
     6     2    16 2   
     7     3    14 2   
     8     3    27 1   
     9     4    19 1   
    10     4    20 2   
    11     4    28 1   
    12     5     9 1   
    13     5    12 1   
    14     6     7 ar  
    15     6    10 ar  
    16     6    43 1   
    17     7    22 ar  
    18     7    29 1   
    19     8    10 ar  
    20     8    21 ar  
    21     8    23 ar  
    22     9    21 ar  
    23     9    25 ar  
    24    10    30 1   
    25    11    12 1   
    26    11    31 1   
    27    11    32 1   
    28    11    33 1   
    29    12    13 1   
    30    12    34 1   
    31    13    15 1   
    32    14    35 1   
    33    15    42 1   
    34    17    18 1   
    35    17    20 1   
    36    18    19 2   
    37    18    36 1   
    38    19    37 1   
    39    21    38 1   
    40    22    23 ar  
    41    22    39 1   
    42    23    24 ar  
    43    24    25 ar  
    44    25    26 1   
    45    26    40 1   
    46    26    41 1   
@<TRIPOS>SUBSTRUCTURE
     1 VUD         1 TEMP              0 ****  ****    0 ROOT
