@<TRIPOS>MOLECULE
VUE
   23    23     1     0     0
SMALL
No Charge or Current Charge


@<TRIPOS>ATOM
      1 N1          -3.4620    14.2400   -33.5830 nu         1 VUE      -0.936200
      2 C7          -5.4840    15.4060   -32.6880 c3         1 VUE       0.144600
      3 O1          -2.2760    10.3690   -34.2570 o          1 VUE      -0.421500
      4 C1          -1.3950    15.0160   -34.5590 ca         1 VUE      -0.221000
      5 C5           0.1470    13.4770   -35.6260 ca         1 VUE       0.035000
      6 C6          -4.1440    15.5450   -33.4640 c3         1 VUE       0.222800
      7 C4          -0.7220    12.4140   -35.3370 ca         1 VUE       0.015000
      8 C3          -1.9440    12.6460   -34.6590 ca         1 VUE      -0.286200
      9 C2          -2.2830    13.9620   -34.2700 ca         1 VUE       0.429000
     10 O           -4.0410    11.6430   -34.3100 o          1 VUE      -0.421500
     11 Cl           1.6590    13.1740   -36.4720 cl         1 VUE      -0.193000
     12 C           -0.1880    14.7800   -35.2360 ca         1 VUE       0.002000
     13 O2          -6.2840    14.3270   -33.2150 oh         1 VUE      -0.665000
     14 H1          -4.1100    13.4440   -33.5560 hn         1 VUE       0.545000
     15 H2          -5.2570    15.2210   -31.6290 h1         1 VUE       0.038700
     16 H3          -6.0280    16.3580   -32.7470 h1         1 VUE       0.038700
     17 H4          -1.6300    16.0320   -34.2580 ha         1 VUE       0.126000
     18 H5          -3.5060    16.2680   -32.9370 h1         1 VUE       0.056200
     19 H6          -4.3560    15.9500   -34.4630 h1         1 VUE       0.056200
     20 H7          -0.4370    11.4110   -35.6490 ha         1 VUE       0.163000
     21 H8           0.4880    15.6040   -35.4550 ha         1 VUE       0.133000
     22 H9          -7.1230    14.3130   -32.7010 ho         1 VUE       0.454000
     23 N           -2.8160    11.4770   -34.3590 no         1 VUE       0.688200
@<TRIPOS>BOND
     1     1     6 1   
     2     1     9 1   
     3     1    14 1   
     4     2     6 1   
     5     2    13 1   
     6     2    15 1   
     7     2    16 1   
     8     3    23 1   
     9     4     9 ar  
    10     4    12 ar  
    11     4    17 1   
    12     5     7 ar  
    13     5    11 1   
    14     5    12 ar  
    15     6    18 1   
    16     6    19 1   
    17     7     8 ar  
    18     7    20 1   
    19     8     9 ar  
    20     8    23 1   
    21    10    23 1   
    22    12    21 1   
    23    13    22 1   
@<TRIPOS>SUBSTRUCTURE
     1 VUE         1 TEMP              0 ****  ****    0 ROOT
