@<TRIPOS>MOLECULE
VUE
   23    23     1     0     0
SMALL
abcg2


@<TRIPOS>ATOM
      1 N1          -3.5790    14.1900   -33.7160 nu         1 VUE      -0.936200
      2 C7          -5.3960    15.4120   -32.6720 c3         1 VUE       0.144600
      3 O1          -2.2410    10.3420   -34.6170 o          1 VUE      -0.421500
      4 C1          -1.5410    15.0050   -34.6750 ca         1 VUE      -0.221000
      5 C5           0.1070    13.4860   -35.5460 ca         1 VUE       0.035000
      6 C6          -4.1060    15.5170   -33.4550 c3         1 VUE       0.222800
      7 C4          -0.6860    12.4170   -35.2310 ca         1 VUE       0.015000
      8 C3          -1.9350    12.6230   -34.6260 ca         1 VUE      -0.286200
      9 C2          -2.4070    13.9360   -34.3160 ca         1 VUE       0.429000
     10 O           -3.8300    11.5720   -33.8300 o          1 VUE      -0.421500
     11 CL           1.6650    13.2370   -36.2980 cl         1 VUE      -0.193000
     12 C           -0.3250    14.7920   -35.2700 ca         1 VUE       0.002000
     13 O2          -6.3420    14.6890   -33.4610 oh         1 VUE      -0.665000
     14 H1          -4.1950    13.4020   -33.5780 hn         1 VUE       0.545000
     15 H2          -5.2130    14.8950   -31.7240 h1         1 VUE       0.038700
     16 H3          -5.7560    16.4210   -32.4530 h1         1 VUE       0.038700
     17 H4          -1.8530    16.0190   -34.4760 ha         1 VUE       0.126000
     18 H5          -3.3930    16.1020   -32.8700 h1         1 VUE       0.056200
     19 H6          -4.2860    16.0520   -34.3940 h1         1 VUE       0.056200
     20 H7          -0.3720    11.4070   -35.4410 ha         1 VUE       0.163000
     21 H8           0.3020    15.6340   -35.5300 ha         1 VUE       0.133000
     22 H9          -7.1030    14.4750   -32.9070 ho         1 VUE       0.454000
     23 N           -2.7060    11.4510   -34.3440 no         1 VUE       0.688200
@<TRIPOS>BOND
     1     1     6 1   
     2     1     9 1   
     3     1    14 1   
     4     2     6 1   
     5     2    13 1   
     6     2    15 1   
     7     2    16 1   
     8     3    23 1   
     9     4     9 ar  
    10     4    12 ar  
    11     4    17 1   
    12     5     7 ar  
    13     5    11 1   
    14     5    12 ar  
    15     6    18 1   
    16     6    19 1   
    17     7     8 ar  
    18     7    20 1   
    19     8     9 ar  
    20     8    23 1   
    21    10    23 1   
    22    12    21 1   
    23    13    22 1   
@<TRIPOS>SUBSTRUCTURE
     1 VUE         1 TEMP              0 ****  ****    0 ROOT
