@<TRIPOS>MOLECULE
VUG
   54    57     1     0     0
SMALL
No Charge or Current Charge


@<TRIPOS>ATOM
      1 C17         84.5990   117.2220    82.7420 ca         1 VUG      -0.116000
      2 C16         85.0340   116.2380    83.6510 ca         1 VUG      -0.169000
      3 C15         85.6460   116.6400    84.8550 ca         1 VUG       0.299000
      4 C14         85.2510   114.4410    86.0750 c6         1 VUG       0.223300
      5 C13         85.4280   113.8680    87.5250 c6         1 VUG       0.158800
      6 C12         87.1400   115.9320    86.8110 c6         1 VUG       0.223300
      7 C11         86.6160   115.8870    88.2920 c6         1 VUG       0.158800
      8 C10         85.4230   114.4890    89.9840 c6         1 VUG       0.191500
      9 C18         84.7810   118.5820    83.0530 ca         1 VUG       0.273900
     10 C19         85.7790   118.0440    85.0760 ca         1 VUG       0.262900
     11 C20         83.3890   113.9380    94.7190 ca         1 VUG      -0.110000
     12 C21         83.0570   113.6700    96.0570 ca         1 VUG      -0.107000
     13 C22         84.0030   113.0860    96.9150 ca         1 VUG      -0.111000
     14 N01         85.4540   114.9590    88.5560 n3         1 VUG      -0.719600
     15 C02         85.2870   112.7660    96.4380 ca         1 VUG      -0.074300
     16 N02         86.0870   115.6530    85.7850 nh         1 VUG      -0.809400
     17 C03         85.6170   113.0390    95.0970 ca         1 VUG      -0.108000
     18 N03         85.3600   119.0000    84.2020 nb         1 VUG      -0.637000
     19 C04         84.6740   113.6270    94.2280 ca         1 VUG      -0.072300
     20 C05         85.0520   113.9160    92.7670 c6         1 VUG      -0.018400
     21 C06         84.2700   113.0080    91.7730 c6         1 VUG      -0.068900
     22 C07         84.2040   113.5750    90.3230 c6         1 VUG      -0.075400
     23 C08         84.8610   115.4030    92.3860 c6         1 VUG      -0.068900
     24 C09         85.4320   115.7100    90.9720 c6         1 VUG      -0.075400
     25 H1          84.1280   116.9400    81.8040 ha         1 VUG       0.116000
     26 H2          84.9060   115.1850    83.4160 ha         1 VUG       0.115000
     27 H3          84.1890   114.7030    85.9530 h1         1 VUG       0.043700
     28 H4          84.5990   113.1680    87.6840 h1         1 VUG       0.039200
     29 H5          87.9250   115.1680    86.7090 h1         1 VUG       0.043700
     30 H6          87.6440   116.8910    86.6300 h1         1 VUG       0.043700
     31 H7          87.4750   115.6200    88.9250 h1         1 VUG       0.039200
     32 H8          86.3270   116.9080    88.5780 h1         1 VUG       0.039200
     33 H9          86.3290   113.8950    90.1760 h1         1 VUG       0.018700
     34 H10         84.4520   119.3580    82.3640 h4         1 VUG       0.018100
     35 H11         86.2250   118.4230    85.9940 h4         1 VUG       0.012100
     36 H13         82.0640   113.9140    96.4290 ha         1 VUG       0.111000
     37 H14         83.7370   112.8830    97.9500 ha         1 VUG       0.111000
     38 H15         86.9380   112.9040    97.8370 hc         1 VUG       0.041367
     39 H16         85.8340   111.5570    98.1630 hc         1 VUG       0.041367
     40 H17         86.9790   111.4540    96.8210 hc         1 VUG       0.041367
     41 H18         86.6110   112.7930    94.7300 ha         1 VUG       0.107000
     42 H19         86.1220   113.6930    92.6450 hc         1 VUG       0.049700
     43 H20         83.2430   112.8450    92.1290 hc         1 VUG       0.044700
     44 H21         84.7410   112.0160    91.7610 hc         1 VUG       0.044700
     45 H22         83.2770   114.1500    90.1920 hc         1 VUG       0.046950
     46 H23         84.1320   112.7180    89.6450 hc         1 VUG       0.046950
     47 H24         85.3450   116.0520    93.1280 hc         1 VUG       0.044700
     48 H25         83.7920   115.6570    92.4070 hc         1 VUG       0.044700
     49 H26         86.4630   116.0730    91.0790 hc         1 VUG       0.046950
     50 H27         84.8590   116.5440    90.5450 hc         1 VUG       0.046950
     51 H28         85.4690   113.6450    85.3490 h1         1 VUG       0.043700
     52 H29         86.3570   113.2820    87.5710 h1         1 VUG       0.039200
     53 H12         82.6450   114.3860    94.0660 ha         1 VUG       0.112000
     54 C01         86.3150   112.1350    97.3650 c3         1 VUG      -0.046800
@<TRIPOS>BOND
     1     1     2 ar  
     2     1     9 ar  
     3     1    25 1   
     4     2     3 ar  
     5     2    26 1   
     6     3    10 ar  
     7     3    16 1   
     8     4     5 1   
     9     4    16 1   
    10     4    27 1   
    11     4    51 1   
    12     5    14 1   
    13     5    28 1   
    14     5    52 1   
    15     6     7 1   
    16     6    16 1   
    17     6    29 1   
    18     6    30 1   
    19     7    14 1   
    20     7    31 1   
    21     7    32 1   
    22     8    14 1   
    23     8    22 1   
    24     8    24 1   
    25     8    33 1   
    26     9    18 ar  
    27     9    34 1   
    28    10    18 ar  
    29    10    35 1   
    30    11    12 ar  
    31    11    19 ar  
    32    11    53 1   
    33    12    13 ar  
    34    12    36 1   
    35    13    15 ar  
    36    13    37 1   
    37    15    17 ar  
    38    15    54 1   
    39    17    19 ar  
    40    17    41 1   
    41    19    20 1   
    42    20    21 1   
    43    20    23 1   
    44    20    42 1   
    45    21    22 1   
    46    21    43 1   
    47    21    44 1   
    48    22    45 1   
    49    22    46 1   
    50    23    24 1   
    51    23    47 1   
    52    23    48 1   
    53    24    49 1   
    54    24    50 1   
    55    38    54 1   
    56    39    54 1   
    57    40    54 1   
@<TRIPOS>SUBSTRUCTURE
     1 VUG         1 TEMP              0 ****  ****    0 ROOT
