@<TRIPOS>MOLECULE
VUG
   54    57     1     0     0
SMALL
bcc


@<TRIPOS>ATOM
      1 C17         84.3820   116.9630    82.9190 ca         1 VUG      -0.199300
      2 C16         84.6590   116.1820    84.0270 ca         1 VUG      -0.187000
      3 C15         85.5700   116.6380    84.9960 ca         1 VUG       0.095300
      4 C14         85.2240   114.6100    86.3020 c6         1 VUG       0.223300
      5 C13         85.6130   114.0270    87.6540 c6         1 VUG       0.158800
      6 C12         86.9730   116.1470    86.9840 c6         1 VUG       0.223300
      7 C11         86.5690   116.0430    88.4570 c6         1 VUG       0.158800
      8 C10         85.4460   114.5930    90.0380 c6         1 VUG       0.191500
      9 C18         85.0170   118.1850    82.7700 ca         1 VUG       0.339200
     10 C19         86.1600   117.8920    84.7290 ca         1 VUG       0.328200
     11 C20         83.4060   113.8890    94.6350 ca         1 VUG      -0.128000
     12 C21         83.0650   113.5410    95.9330 ca         1 VUG      -0.125000
     13 C22         83.9900   112.9180    96.7610 ca         1 VUG      -0.129000
     14 N01         85.5030   115.0650    88.6590 n3         1 VUG      -0.719600
     15 C02         85.2730   112.6390    96.2980 ca         1 VUG      -0.074300
     16 N02         85.8360   115.9120    86.1230 nh         1 VUG      -0.671000
     17 C03         85.5970   112.9980    94.9900 ca         1 VUG      -0.126000
     18 N03         85.8910   118.6280    83.6660 nb         1 VUG      -0.637000
     19 C04         84.6840   113.6210    94.1450 ca         1 VUG      -0.072300
     20 C05         85.0650   113.9750    92.7300 c6         1 VUG      -0.018400
     21 C06         84.3670   113.0550    91.7070 c6         1 VUG      -0.068900
     22 C07         84.2400   113.7010    90.3220 c6         1 VUG      -0.075400
     23 C08         84.7620   115.4270    92.3660 c6         1 VUG      -0.068900
     24 C09         85.3820   115.7890    91.0080 c6         1 VUG      -0.075400
     25 H1          83.6810   116.6150    82.1720 ha         1 VUG       0.134000
     26 H2          84.1680   115.2240    84.1270 ha         1 VUG       0.133000
     27 H3          84.1360   114.7140    86.2680 h1         1 VUG       0.043700
     28 H4          84.9220   113.2120    87.8600 h1         1 VUG       0.039200
     29 H5          87.7700   115.4300    86.7570 h1         1 VUG       0.043700
     30 H6          87.3960   117.1320    86.8180 h1         1 VUG       0.043700
     31 H7          87.4770   115.7800    89.0220 h1         1 VUG       0.039200
     32 H8          86.2400   117.0200    88.8150 h1         1 VUG       0.039200
     33 H9          86.3580   114.0120    90.2690 h1         1 VUG       0.018700
     34 H10         84.8210   118.8200    81.9130 h4         1 VUG       0.018100
     35 H11         86.8810   118.3210    85.4150 h4         1 VUG       0.012100
     36 H13         82.0690   113.7530    96.3030 ha         1 VUG       0.129000
     37 H14         83.7130   112.6450    97.7720 ha         1 VUG       0.129000
     38 H15         86.8710   112.7460    97.7320 hc         1 VUG       0.041367
     39 H16         85.8250   111.3500    97.9360 hc         1 VUG       0.041367
     40 H17         87.0020   111.3920    96.6220 hc         1 VUG       0.041367
     41 H18         86.5940   112.7840    94.6160 ha         1 VUG       0.125000
     42 H19         86.1470   113.8340    92.6400 hc         1 VUG       0.049700
     43 H20         83.3690   112.7970    92.0690 hc         1 VUG       0.044700
     44 H21         84.9200   112.1150    91.6360 hc         1 VUG       0.044700
     45 H22         83.3330   114.3110    90.2650 hc         1 VUG       0.046950
     46 H23         84.1220   112.9080    89.5830 hc         1 VUG       0.046950
     47 H24         85.1380   116.1060    93.1350 hc         1 VUG       0.044700
     48 H25         83.6780   115.5720    92.3310 hc         1 VUG       0.044700
     49 H26         86.3840   116.1930    91.1650 hc         1 VUG       0.046950
     50 H27         84.7880   116.5820    90.5470 hc         1 VUG       0.046950
     51 H28         85.5100   113.9100    85.5060 h1         1 VUG       0.043700
     52 H29         86.6170   113.5740    87.6190 h1         1 VUG       0.039200
     53 H12         82.6700   114.3710    94.0030 ha         1 VUG       0.130000
     54 C01         86.2930   111.9930    97.1910 c3         1 VUG      -0.046800
@<TRIPOS>BOND
     1     1     2 ar  
     2     1     9 ar  
     3     1    25 1   
     4     2     3 ar  
     5     2    26 1   
     6     3    10 ar  
     7     3    16 1   
     8     4     5 1   
     9     4    16 1   
    10     4    27 1   
    11     4    51 1   
    12     5    14 1   
    13     5    28 1   
    14     5    52 1   
    15     6     7 1   
    16     6    16 1   
    17     6    29 1   
    18     6    30 1   
    19     7    14 1   
    20     7    31 1   
    21     7    32 1   
    22     8    14 1   
    23     8    22 1   
    24     8    24 1   
    25     8    33 1   
    26     9    18 ar  
    27     9    34 1   
    28    10    18 ar  
    29    10    35 1   
    30    11    12 ar  
    31    11    19 ar  
    32    11    53 1   
    33    12    13 ar  
    34    12    36 1   
    35    13    15 ar  
    36    13    37 1   
    37    15    17 ar  
    38    15    54 1   
    39    17    19 ar  
    40    17    41 1   
    41    19    20 1   
    42    20    21 1   
    43    20    23 1   
    44    20    42 1   
    45    21    22 1   
    46    21    43 1   
    47    21    44 1   
    48    22    45 1   
    49    22    46 1   
    50    23    24 1   
    51    23    47 1   
    52    23    48 1   
    53    24    49 1   
    54    24    50 1   
    55    38    54 1   
    56    39    54 1   
    57    40    54 1   
@<TRIPOS>SUBSTRUCTURE
     1 VUG         1 TEMP              0 ****  ****    0 ROOT
