@<TRIPOS>MOLECULE
VUI
   25    25     1     0     0
SMALL
No Charge or Current Charge


@<TRIPOS>ATOM
      1 C7          -1.0060    13.0430   -35.4060 ca         1 VUI       0.011000
      2 C8          -2.1550    13.4560   -34.6950 ca         1 VUI      -0.213200
      3 O1          -3.5580    15.2180   -33.8440 os         1 VUI      -0.319100
      4 C1          -5.2150    16.6360   -32.8170 c3         1 VUI       0.152600
      5 C5          -0.4760    15.3620   -35.9160 ca         1 VUI      -0.002000
      6 C6          -0.1740    13.9960   -36.0140 ca         1 VUI      -0.068900
      7 C4          -1.6110    15.7790   -35.2000 ca         1 VUI      -0.217000
      8 C3          -2.4570    14.8300   -34.5820 ca         1 VUI       0.230100
      9 O3          -4.2460    12.5170   -34.2350 o          1 VUI      -0.388500
     10 C2          -3.9410    16.5960   -33.6840 c3         1 VUI       0.160600
     11 Br           1.3750    13.4290   -36.9840 br         1 VUI      -0.076100
     12 N           -3.0230    12.4300   -34.0650 no         1 VUI       0.683200
     13 O2          -2.4700    11.4370   -33.5770 o          1 VUI      -0.388500
     14 O           -5.6080    18.0130   -32.6520 os         1 VUI      -0.467000
     15 C           -6.7930    18.2040   -31.8580 c3         1 VUI       0.148900
     16 H1          -0.7610    11.9850   -35.4970 ha         1 VUI       0.165000
     17 H2          -6.0090    16.0620   -33.3140 h1         1 VUI       0.047200
     18 H3          -5.0060    16.1710   -31.8450 h1         1 VUI       0.047200
     19 H4           0.1720    16.0980   -36.3880 ha         1 VUI       0.138000
     20 H5          -1.8120    16.8440   -35.1330 ha         1 VUI       0.135000
     21 H6          -3.1470    17.1660   -33.1850 h1         1 VUI       0.056200
     22 H7          -4.1520    17.0570   -34.6580 h1         1 VUI       0.056200
     23 H8          -7.0290    19.2720   -31.7760 h1         1 VUI       0.036367
     24 H9          -7.6540    17.6980   -32.3130 h1         1 VUI       0.036367
     25 H10         -6.6520    17.8070   -30.8440 h1         1 VUI       0.036367
@<TRIPOS>BOND
     1     1     2 ar  
     2     1     6 ar  
     3     1    16 1   
     4     2     8 ar  
     5     2    12 1   
     6     3     8 1   
     7     3    10 1   
     8     4    10 1   
     9     4    14 1   
    10     4    17 1   
    11     4    18 1   
    12     5     6 ar  
    13     5     7 ar  
    14     5    19 1   
    15     6    11 1   
    16     7     8 ar  
    17     7    20 1   
    18     9    12 1   
    19    10    21 1   
    20    10    22 1   
    21    12    13 1   
    22    14    15 1   
    23    15    23 1   
    24    15    24 1   
    25    15    25 1   
@<TRIPOS>SUBSTRUCTURE
     1 VUI         1 TEMP              0 ****  ****    0 ROOT
