@<TRIPOS>MOLECULE
VUI
   25    25     1     0     0
SMALL
abcg2


@<TRIPOS>ATOM
      1 C7          -1.0320    13.0860   -35.3550 ca         1 VUI       0.011000
      2 C8          -2.1870    13.4920   -34.6940 ca         1 VUI      -0.213200
      3 O1          -3.6350    15.1920   -33.8950 os         1 VUI      -0.319100
      4 C1          -5.1920    16.6240   -32.8550 c3         1 VUI       0.152600
      5 C5          -0.5480    15.3850   -35.8650 ca         1 VUI      -0.002000
      6 C6          -0.2250    14.0360   -35.9450 ca         1 VUI      -0.068900
      7 C4          -1.6870    15.7850   -35.1870 ca         1 VUI      -0.217000
      8 C3          -2.5420    14.8520   -34.5870 ca         1 VUI       0.230100
      9 O3          -4.2150    12.6020   -34.0270 o          1 VUI      -0.388500
     10 C2          -3.9440    16.5810   -33.7120 c3         1 VUI       0.160600
     11 BR           1.3460    13.4870   -36.8800 br         1 VUI      -0.076100
     12 N           -3.0070    12.4340   -34.1110 no         1 VUI       0.683200
     13 O2          -2.4370    11.4080   -33.7510 o          1 VUI      -0.388500
     14 O           -5.5320    17.9860   -32.6850 os         1 VUI      -0.467000
     15 C           -6.6980    18.1560   -31.8920 c3         1 VUI       0.148900
     16 H1          -0.7980    12.0340   -35.4050 ha         1 VUI       0.165000
     17 H2          -6.0060    16.0790   -33.3500 h1         1 VUI       0.047200
     18 H3          -5.0010    16.1470   -31.8860 h1         1 VUI       0.047200
     19 H4           0.0860    16.1300   -36.3260 ha         1 VUI       0.138000
     20 H5          -1.9120    16.8380   -35.1240 ha         1 VUI       0.135000
     21 H6          -3.1150    17.0870   -33.2120 h1         1 VUI       0.056200
     22 H7          -4.1260    17.0530   -34.6790 h1         1 VUI       0.056200
     23 H8          -6.8870    19.2260   -31.8190 h1         1 VUI       0.036367
     24 H9          -7.5620    17.6640   -32.3540 h1         1 VUI       0.036367
     25 H10         -6.5520    17.7430   -30.8870 h1         1 VUI       0.036367
@<TRIPOS>BOND
     1     1     2 ar  
     2     1     6 ar  
     3     1    16 1   
     4     2     8 ar  
     5     2    12 1   
     6     3     8 1   
     7     3    10 1   
     8     4    10 1   
     9     4    14 1   
    10     4    17 1   
    11     4    18 1   
    12     5     6 ar  
    13     5     7 ar  
    14     5    19 1   
    15     6    11 1   
    16     7     8 ar  
    17     7    20 1   
    18     9    12 1   
    19    10    21 1   
    20    10    22 1   
    21    12    13 1   
    22    14    15 1   
    23    15    23 1   
    24    15    24 1   
    25    15    25 1   
@<TRIPOS>SUBSTRUCTURE
     1 VUI         1 TEMP              0 ****  ****    0 ROOT
