@<TRIPOS>MOLECULE
VUJ
   56    59     1     0     0
SMALL
abcg2


@<TRIPOS>ATOM
      1 C10        100.7520   131.0090   101.4680 c6         1 VUJ       0.163300
      2 C13        101.1240   130.5870   107.7610 c6         1 VUJ      -0.066400
      3 C15        100.0710   128.5900   108.9650 ca         1 VUJ      -0.071300
      4 C17         98.7250   128.7210   110.9690 ca         1 VUJ      -0.108000
      5 C20        100.6150   125.4200   111.0210 c3         1 VUJ      -0.045800
      6 C21        100.5110   127.3350   109.3830 ca         1 VUJ      -0.107000
      7 C22         99.4500   129.1340   106.5870 c2         1 VUJ      -0.215200
      8 C01        101.9270   137.3440   100.7290 c          1 VUJ       0.544200
      9 N01        102.8010   136.4790   100.0870 ns         1 VUJ      -0.366100
     10 O01        102.1920   138.5540   100.8090 o          1 VUJ      -0.570000
     11 C02        100.7480   136.6990   101.2450 cc         1 VUJ      -0.320200
     12 N02        101.1910   132.3970   101.5960 n3         1 VUJ      -0.701600
     13 C03        100.5530   135.3590   101.0970 cd         1 VUJ      -0.066000
     14 N03        101.0010   131.1680   103.9310 n3         1 VUJ      -0.697600
     15 C04        102.6110   135.1400    99.9400 cc         1 VUJ      -0.034400
     16 C05        101.4960   134.5320   100.4290 cd         1 VUJ      -0.193200
     17 C06        101.2670   133.0540   100.2960 c3         1 VUJ       0.230000
     18 C07        102.4460   132.4060   102.3340 c6         1 VUJ       0.163300
     19 C08        102.1750   132.0480   103.7970 c6         1 VUJ       0.166300
     20 C09        100.9300   130.2480   102.7960 c6         1 VUJ       0.166300
     21 C11        100.9920   130.4390   105.2040 c6         1 VUJ       0.207700
     22 C12        101.2110   131.3560   106.4240 c6         1 VUJ      -0.072400
     23 C14        100.5320   129.1550   107.6410 c6         1 VUJ       0.011800
     24 C16         99.1670   129.2810   109.7770 ca         1 VUJ      -0.108000
     25 C18         99.1810   127.4700   111.3720 ca         1 VUJ      -0.111000
     26 C19        100.0840   126.7600   110.5820 ca         1 VUJ      -0.076300
     27 C23         99.6820   129.7280   105.4200 c2         1 VUJ      -0.218200
     28 H1          99.7090   130.9970   101.1430 h1         1 VUJ       0.032700
     29 H2         101.3440   130.4930   100.6940 h1         1 VUJ       0.032700
     30 H3         102.1150   130.5010   108.2110 hc         1 VUJ       0.043700
     31 H4         100.5160   131.1640   108.4570 hc         1 VUJ       0.043700
     32 H5          98.0200   129.2630   111.5870 ha         1 VUJ       0.112000
     33 H6         101.5250   125.5430   111.6160 hc         1 VUJ       0.042033
     34 H7          99.8880   124.8910   111.6380 hc         1 VUJ       0.042033
     35 H8         100.8660   124.7940   110.1630 hc         1 VUJ       0.042033
     36 H9         101.2080   126.7900   108.7540 ha         1 VUJ       0.108000
     37 H10         98.5060   128.6480   106.8040 ha         1 VUJ       0.186000
     38 H12        100.0260   137.3250   101.7500 ha         1 VUJ       0.210000
     39 H14         99.6580   134.9000   101.4990 ha         1 VUJ       0.200000
     40 H16        103.3970   134.6050    99.4240 h4         1 VUJ       0.197000
     41 H17        100.3120   132.8790    99.7940 h1         1 VUJ       0.036200
     42 H18        102.0500   132.6110    99.6580 h1         1 VUJ       0.036200
     43 H19        103.1590   131.6940   101.8830 h1         1 VUJ       0.032700
     44 H20        102.9070   133.3910   102.2820 h1         1 VUJ       0.032700
     45 H21        103.0790   131.5790   104.2160 h1         1 VUJ       0.035700
     46 H22        101.9830   132.9580   104.3660 h1         1 VUJ       0.035700
     47 H23        100.0830   129.5790   102.9380 h1         1 VUJ       0.035700
     48 H24        101.8280   129.6100   102.7540 h1         1 VUJ       0.035700
     49 H25        101.8110   129.6930   105.2050 h1         1 VUJ       0.025700
     50 H26        102.1750   131.8540   106.3580 hc         1 VUJ       0.050200
     51 H27        100.4400   132.1290   106.3890 hc         1 VUJ       0.050200
     52 H28        101.3470   128.5160   107.2850 hc         1 VUJ       0.054700
     53 H29         98.7970   130.2520   109.4730 ha         1 VUJ       0.115000
     54 H30         98.8330   127.0410   112.3050 ha         1 VUJ       0.110000
     55 H31         98.9290   129.7650   104.6410 ha         1 VUJ       0.189000
     56 H11        103.6440   136.8960    99.7130 hn         1 VUJ       0.326500
@<TRIPOS>BOND
     1     1    12 1   
     2     1    20 1   
     3     1    28 1   
     4     1    29 1   
     5     2    22 1   
     6     2    23 1   
     7     2    30 1   
     8     2    31 1   
     9     3     6 ar  
    10     3    23 1   
    11     3    24 ar  
    12     4    24 ar  
    13     4    25 ar  
    14     4    32 1   
    15     5    26 1   
    16     5    33 1   
    17     5    34 1   
    18     5    35 1   
    19     6    26 ar  
    20     6    36 1   
    21     7    23 1   
    22     7    27 2   
    23     7    37 1   
    24     8     9 1   
    25     8    10 2   
    26     8    11 1   
    27     9    15 1   
    28     9    56 1   
    29    11    13 2   
    30    11    38 1   
    31    12    17 1   
    32    12    18 1   
    33    13    16 1   
    34    13    39 1   
    35    14    19 1   
    36    14    20 1   
    37    14    21 1   
    38    15    16 2   
    39    15    40 1   
    40    16    17 1   
    41    17    41 1   
    42    17    42 1   
    43    18    19 1   
    44    18    43 1   
    45    18    44 1   
    46    19    45 1   
    47    19    46 1   
    48    20    47 1   
    49    20    48 1   
    50    21    22 1   
    51    21    27 1   
    52    21    49 1   
    53    22    50 1   
    54    22    51 1   
    55    23    52 1   
    56    24    53 1   
    57    25    26 ar  
    58    25    54 1   
    59    27    55 1   
@<TRIPOS>SUBSTRUCTURE
     1 VUJ         1 TEMP              0 ****  ****    0 ROOT
