@<TRIPOS>MOLECULE
VUJ
   56    59     1     0     0
SMALL
No Charge or Current Charge


@<TRIPOS>ATOM
      1 C10        100.6340   131.0350   101.3270 c6         1 VUJ       0.163300
      2 C13        102.4410   128.3910   106.9330 c6         1 VUJ      -0.066400
      3 C15        100.2370   128.4850   108.2270 ca         1 VUJ      -0.071300
      4 C17         98.5980   130.2040   108.7950 ca         1 VUJ      -0.108000
      5 C20         99.7680   128.5350   112.0400 c3         1 VUJ      -0.045800
      6 C21        100.3660   128.1790   109.5970 ca         1 VUJ      -0.107000
      7 C22        100.3290   127.4850   105.8850 c2         1 VUJ      -0.215200
      8 C01        101.1170   137.4980   102.6560 c          1 VUJ       0.544200
      9 N01        101.8120   137.0660   101.5600 ns         1 VUJ      -0.366100
     10 O01        101.2520   138.6210   103.1130 o          1 VUJ      -0.570000
     11 C02        100.2130   136.4890   103.2090 cc         1 VUJ      -0.320200
     12 N02        100.9570   132.3860   101.8790 n3         1 VUJ      -0.701600
     13 C03        100.0740   135.2200   102.6760 cd         1 VUJ      -0.066000
     14 N03        101.4330   130.2470   103.6460 n3         1 VUJ      -0.697600
     15 C04        101.7080   135.8050   100.9880 cc         1 VUJ      -0.034400
     16 C05        100.8510   134.8520   101.5130 cd         1 VUJ      -0.193200
     17 C06        100.7210   133.4740   100.9060 c3         1 VUJ       0.230000
     18 C07        102.3250   132.3850   102.4700 c6         1 VUJ       0.163300
     19 C08        102.5230   131.2860   103.5730 c6         1 VUJ       0.166300
     20 C09        101.0520   129.8370   102.2520 c6         1 VUJ       0.166300
     21 C11        101.7930   129.0900   104.5360 c6         1 VUJ       0.207700
     22 C12        102.3110   129.5640   105.9340 c6         1 VUJ      -0.072400
     23 C14        101.0740   127.7130   107.1940 c6         1 VUJ       0.011800
     24 C16         99.3470   129.5060   107.8330 ca         1 VUJ      -0.108000
     25 C18         98.7310   129.8900   110.1570 ca         1 VUJ      -0.111000
     26 C19         99.6160   128.8740   110.5640 ca         1 VUJ      -0.076300
     27 C23        100.6390   128.0930   104.7230 c2         1 VUJ      -0.218200
     28 H1          99.5520   130.9710   101.1440 h1         1 VUJ       0.032700
     29 H2         101.1230   130.8960   100.3510 h1         1 VUJ       0.032700
     30 H3         103.1430   127.6510   106.5250 hc         1 VUJ       0.043700
     31 H4         102.8770   128.7420   107.8780 hc         1 VUJ       0.043700
     32 H5          97.9140   130.9910   108.4840 ha         1 VUJ       0.112000
     33 H6         100.5830   129.1130   112.4900 hc         1 VUJ       0.042033
     34 H7          98.8510   128.7570   112.5990 hc         1 VUJ       0.042033
     35 H8          99.9910   127.4710   112.1840 hc         1 VUJ       0.042033
     36 H9         101.0550   127.3990   109.9120 ha         1 VUJ       0.108000
     37 H10         99.4980   126.7770   105.9310 ha         1 VUJ       0.186000
     38 H12         99.6500   136.8030   104.0810 ha         1 VUJ       0.210000
     39 H14         99.3920   134.5000   103.1270 ha         1 VUJ       0.200000
     40 H16        102.3500   135.6700   100.1220 h4         1 VUJ       0.197000
     41 H17         99.7070   133.3860   100.4910 h1         1 VUJ       0.036200
     42 H18        101.4210   133.3830   100.0640 h1         1 VUJ       0.036200
     43 H19        103.0670   132.2140   101.6760 h1         1 VUJ       0.032700
     44 H20        102.5610   133.3640   102.9120 h1         1 VUJ       0.032700
     45 H21        103.4980   130.8070   103.4000 h1         1 VUJ       0.035700
     46 H22        102.5970   131.8090   104.5370 h1         1 VUJ       0.035700
     47 H23        100.2140   129.1290   102.2480 h1         1 VUJ       0.035700
     48 H24        101.9000   129.3200   101.7800 h1         1 VUJ       0.035700
     49 H25        102.6180   128.5330   104.0670 h1         1 VUJ       0.025700
     50 H26        103.2960   130.0380   105.8330 hc         1 VUJ       0.050200
     51 H27        101.6380   130.3270   106.3460 hc         1 VUJ       0.050200
     52 H28        101.2860   126.7200   107.6150 hc         1 VUJ       0.054700
     53 H29         99.2350   129.7650   106.7830 ha         1 VUJ       0.115000
     54 H30         98.1490   130.4370   110.8950 ha         1 VUJ       0.110000
     55 H31        100.0550   127.8430   103.8410 ha         1 VUJ       0.189000
     56 H11        102.4450   137.7480   101.1590 hn         1 VUJ       0.326500
@<TRIPOS>BOND
     1     1    12 1   
     2     1    20 1   
     3     1    28 1   
     4     1    29 1   
     5     2    22 1   
     6     2    23 1   
     7     2    30 1   
     8     2    31 1   
     9     3     6 ar  
    10     3    23 1   
    11     3    24 ar  
    12     4    24 ar  
    13     4    25 ar  
    14     4    32 1   
    15     5    26 1   
    16     5    33 1   
    17     5    34 1   
    18     5    35 1   
    19     6    26 ar  
    20     6    36 1   
    21     7    23 1   
    22     7    27 2   
    23     7    37 1   
    24     8     9 1   
    25     8    10 2   
    26     8    11 1   
    27     9    15 1   
    28     9    56 1   
    29    11    13 2   
    30    11    38 1   
    31    12    17 1   
    32    12    18 1   
    33    13    16 1   
    34    13    39 1   
    35    14    19 1   
    36    14    20 1   
    37    14    21 1   
    38    15    16 2   
    39    15    40 1   
    40    16    17 1   
    41    17    41 1   
    42    17    42 1   
    43    18    19 1   
    44    18    43 1   
    45    18    44 1   
    46    19    45 1   
    47    19    46 1   
    48    20    47 1   
    49    20    48 1   
    50    21    22 1   
    51    21    27 1   
    52    21    49 1   
    53    22    50 1   
    54    22    51 1   
    55    23    52 1   
    56    24    53 1   
    57    25    26 ar  
    58    25    54 1   
    59    27    55 1   
@<TRIPOS>SUBSTRUCTURE
     1 VUJ         1 TEMP              0 ****  ****    0 ROOT
