@<TRIPOS>MOLECULE
VUK
  118   122     1     0     0
SMALL
No Charge or Current Charge


@<TRIPOS>ATOM
      1 C10         -2.8500    16.2680    87.8030 ca         1 VUK      -0.059300
      2 C11         -3.5890    17.2390    88.5050 ca         1 VUK      -0.117000
      3 C12         -3.1710    17.6640    89.7790 ca         1 VUK      -0.071500
      4 C13         -2.0100    17.1230    90.3620 ca         1 VUK       0.076400
      5 C18         -0.7060    20.3570    94.9190 ca         1 VUK      -0.121000
      6 C19          0.4520    19.8090    95.4990 ca         1 VUK      -0.090000
      7 C20          1.1920    18.8370    94.8040 ca         1 VUK      -0.121000
      8 C21          0.7740    18.4100    93.5300 ca         1 VUK      -0.073000
      9 N           -1.5960    17.5430    91.6400 ne         1 VUK      -0.203400
     10 C           -4.2410    11.2430    82.2120 c3         1 VUK      -0.113100
     11 O           -5.7580     9.4850    81.4590 os         1 VUK      -0.473100
     12 C1          -4.9510     9.9060    82.5930 c3         1 VUK       0.229000
     13 C14         -1.2750    16.1480    89.6630 ca         1 VUK      -0.071500
     14 C15         -1.6920    15.7230    88.3890 ca         1 VUK      -0.117000
     15 C16         -0.3880    18.9540    92.9490 ca         1 VUK       0.075400
     16 C17         -1.1250    19.9310    93.6450 ca         1 VUK      -0.073000
     17 C2          -6.7410    10.2570    80.8810 c          1 VUK       0.607100
     18 C22         -4.3110     9.2950    85.7470 c5         1 VUK       0.152000
     19 C23         -2.8780     9.4400    85.1120 c5         1 VUK       0.247500
     20 C24         -2.5480     8.6140    87.2270 c          1 VUK       0.639100
     21 C25         -3.8610     9.4670    87.2520 c5         1 VUK       0.050000
     22 C26         -4.8780     8.9770    88.3210 c3         1 VUK      -0.117100
     23 C27         -2.6950     8.9740    83.6490 c2         1 VUK      -0.123400
     24 C28         -1.5150     8.7840    83.0480 c2         1 VUK      -0.070400
     25 C29         -0.1210     9.0160    83.6130 c3         1 VUK      -0.044900
     26 C3          -7.4070     9.5120    79.7350 c3         1 VUK      -0.159100
     27 C30         -1.6990     8.2580    81.6450 c5         1 VUK       0.175500
     28 C32         -0.3620     9.8390    78.5230 ce         1 VUK      -0.170400
     29 C33         -0.1280     9.3800    77.0870 c3         1 VUK      -0.041900
     30 C34         -0.1170    11.1390    78.8560 c2         1 VUK      -0.132200
     31 C35         -0.2780    11.8480    80.1900 c3         1 VUK      -0.058900
     32 C36         -3.2430     8.3320    81.3700 c5         1 VUK       0.153300
     33 C38         -4.8300     5.4250    79.6100 c3         1 VUK      -0.136400
     34 C39         -6.3530     5.3650    79.8940 c3         1 VUK      -0.066400
     35 C4          -5.9380    10.0320    83.8020 c3         1 VUK      -0.107400
     36 C40         -6.7410     5.7420    81.3470 c3         1 VUK      -0.073400
     37 C41         -8.2610     5.7090    81.6360 c3         1 VUK      -0.073400
     38 C42         -8.8950     4.3000    81.5780 c3         1 VUK      -0.077400
     39 C43        -10.3910     4.2980    81.9610 c3         1 VUK      -0.075400
     40 C44        -11.0270     2.8950    81.9020 c3         1 VUK      -0.088100
     41 C45         -3.9140     8.7290    82.7460 c5         1 VUK      -0.009500
     42 C5          -5.3480    10.3390    85.2060 c3         1 VUK       0.179300
     43 C6          -5.4960    12.7650    85.2550 c          1 VUK       0.617100
     44 C7          -4.6540    14.0330    85.1220 c3         1 VUK      -0.138400
     45 C8          -4.1840    14.5360    86.5070 c3         1 VUK      -0.063400
     46 C9          -3.3050    15.8020    86.4260 c3         1 VUK      -0.036100
     47 N1          -0.8050    18.5310    91.6650 nf         1 VUK      -0.200400
     48 O1          -7.0630    11.3870    81.2150 o          1 VUK      -0.491000
     49 O10         -3.7030     6.9920    81.0330 os         1 VUK      -0.432100
     50 O11         -4.3410     7.6970    78.9200 o          1 VUK      -0.490000
     51 O2          -4.7240    11.6380    85.1430 os         1 VUK      -0.451100
     52 O3          -6.7030    12.7690    85.4520 o          1 VUK      -0.481000
     53 O5          -2.0530     8.5970    85.9540 os         1 VUK      -0.410100
     54 O6          -3.5350    10.8300    87.6150 oh         1 VUK      -0.650000
     55 O7          -2.0230     8.0170    88.1580 o          1 VUK      -0.482000
     56 O8          -1.0360     9.1900    80.7490 os         1 VUK      -0.438100
     57 O9          -1.1000     7.6120    79.0860 o          1 VUK      -0.497000
     58 H1          -4.4890    17.6640    88.0660 ha         1 VUK       0.115500
     59 H2          -3.7470    18.4140    90.3150 ha         1 VUK       0.130500
     60 H3          -1.2790    21.1110    95.4550 ha         1 VUK       0.116000
     61 H4           0.7760    20.1390    96.4840 ha         1 VUK       0.114000
     62 H5           2.0890    18.4130    95.2510 ha         1 VUK       0.116000
     63 H6           1.3480    17.6580    92.9940 ha         1 VUK       0.129500
     64 H8          -3.3720    11.4310    82.8520 hc         1 VUK       0.055700
     65 H9          -3.8860    11.2240    81.1750 hc         1 VUK       0.055700
     66 H10         -4.9080    12.1040    82.3250 hc         1 VUK       0.055700
     67 H11         -0.3800    15.7220    90.1100 ha         1 VUK       0.130500
     68 H12         -1.1160    14.9680    87.8590 ha         1 VUK       0.115500
     69 H13         -2.0200    20.3560    93.1980 ha         1 VUK       0.129500
     70 H14         -2.5180    10.4730    85.2170 h1         1 VUK       0.096700
     71 H15         -4.4890     9.1180    89.3370 hc         1 VUK       0.059367
     72 H16         -5.8260     9.5250    88.2520 hc         1 VUK       0.059367
     73 H17         -5.1000     7.9080    88.2160 hc         1 VUK       0.059367
     74 H18         -0.1330     9.5190    84.5860 hc         1 VUK       0.054033
     75 H19          0.4140     8.0670    83.7320 hc         1 VUK       0.054033
     76 H20          0.4720     9.6480    82.9410 hc         1 VUK       0.054033
     77 H21         -8.2260    10.0810    79.2810 hc         1 VUK       0.069700
     78 H22         -6.6420     9.2490    78.9970 hc         1 VUK       0.069700
     79 H23         -7.7350     8.5300    80.0900 hc         1 VUK       0.069700
     80 H24         -1.2870     7.2450    81.5410 h1         1 VUK       0.098700
     81 H25         -1.0510     8.9930    76.6400 hc         1 VUK       0.047367
     82 H26          0.2280    10.1910    76.4410 hc         1 VUK       0.047367
     83 H27          0.6220     8.5800    77.0450 hc         1 VUK       0.047367
     84 H28          0.2480    11.8180    78.0830 ha         1 VUK       0.167000
     85 H29         -0.0160    12.9090    80.1030 hc         1 VUK       0.050033
     86 H30         -1.3130    11.7970    80.5490 hc         1 VUK       0.050033
     87 H31          0.3750    11.4130    80.9560 hc         1 VUK       0.050033
     88 H32         -3.4620     9.0630    80.5830 h1         1 VUK       0.086700
     89 H33         -4.3330     4.7450    80.3120 hc         1 VUK       0.073700
     90 H34         -4.6540     5.1020    78.5780 hc         1 VUK       0.073700
     91 H35         -6.6990     4.3480    79.6760 hc         1 VUK       0.052700
     92 H36         -6.8750     6.0320    79.1950 hc         1 VUK       0.052700
     93 H37         -6.6810    10.8070    83.5950 hc         1 VUK       0.072200
     94 H38         -6.5170     9.1040    83.8680 hc         1 VUK       0.072200
     95 H39         -6.3830     6.7550    81.5640 hc         1 VUK       0.038200
     96 H40         -6.2260     5.0740    82.0480 hc         1 VUK       0.038200
     97 H41         -8.7780     6.3700    80.9290 hc         1 VUK       0.040200
     98 H42         -8.4280     6.1300    82.6350 hc         1 VUK       0.040200
     99 H43         -8.3490     3.6310    82.2560 hc         1 VUK       0.036700
    100 H44         -8.7900     3.8890    80.5670 hc         1 VUK       0.036700
    101 H45        -10.9390     4.9660    81.2860 hc         1 VUK       0.036700
    102 H46        -10.5080     4.7000    82.9750 hc         1 VUK       0.036700
    103 H47        -12.0860     2.9440    82.1810 hc         1 VUK       0.031033
    104 H48        -10.9570     2.4800    80.8900 hc         1 VUK       0.031033
    105 H49        -10.5210     2.2110    82.5940 hc         1 VUK       0.031033
    106 H50         -4.4800     7.8670    83.1120 hc         1 VUK       0.100700
    107 H51         -6.1760    10.3530    85.9280 h1         1 VUK       0.074700
    108 H52         -3.7570    13.8040    84.5350 hc         1 VUK       0.073200
    109 H53         -5.2500    14.8140    84.6350 hc         1 VUK       0.073200
    110 H54         -5.0600    14.7460    87.1340 hc         1 VUK       0.060200
    111 H55         -3.6190    13.7390    87.0080 hc         1 VUK       0.060200
    112 H56         -2.4310    15.5960    85.7950 hc         1 VUK       0.048200
    113 H57         -3.8650    16.5990    85.9230 hc         1 VUK       0.048200
    114 H59         -5.6880     7.9060    86.0830 ho         1 VUK       0.454000
    115 H60         -3.2190    10.8290    88.5470 ho         1 VUK       0.467000
    116 O4          -4.8550     7.9670    85.5660 oh         1 VUK      -0.638000
    117 C31         -0.8720     8.7570    79.4560 c          1 VUK       0.610300
    118 C37         -4.2690     6.8380    79.7880 c          1 VUK       0.605100
@<TRIPOS>BOND
     1     1     2 ar  
     2     1    14 ar  
     3     1    46 1   
     4     2     3 ar  
     5     2    58 1   
     6     3     4 ar  
     7     3    59 1   
     8     4     9 1   
     9     4    13 ar  
    10     5     6 ar  
    11     5    16 ar  
    12     5    60 1   
    13     6     7 ar  
    14     6    61 1   
    15     7     8 ar  
    16     7    62 1   
    17     8    15 ar  
    18     8    63 1   
    19     9    47 2   
    20    10    12 1   
    21    10    64 1   
    22    10    65 1   
    23    10    66 1   
    24    11    12 1   
    25    11    17 1   
    26    12    35 1   
    27    12    41 1   
    28    13    14 ar  
    29    13    67 1   
    30    14    68 1   
    31    15    16 ar  
    32    15    47 1   
    33    16    69 1   
    34    17    26 1   
    35    17    48 2   
    36    18    19 1   
    37    18    21 1   
    38    18    42 1   
    39    18   116 1   
    40    19    23 1   
    41    19    53 1   
    42    19    70 1   
    43    20    21 1   
    44    20    53 1   
    45    20    55 2   
    46    21    22 1   
    47    21    54 1   
    48    22    71 1   
    49    22    72 1   
    50    22    73 1   
    51    23    24 2   
    52    23    41 1   
    53    24    25 1   
    54    24    27 1   
    55    25    74 1   
    56    25    75 1   
    57    25    76 1   
    58    26    77 1   
    59    26    78 1   
    60    26    79 1   
    61    27    32 1   
    62    27    56 1   
    63    27    80 1   
    64    28    29 1   
    65    28    30 2   
    66    28   117 1   
    67    29    81 1   
    68    29    82 1   
    69    29    83 1   
    70    30    31 1   
    71    30    84 1   
    72    31    85 1   
    73    31    86 1   
    74    31    87 1   
    75    32    41 1   
    76    32    49 1   
    77    32    88 1   
    78    33    34 1   
    79    33    89 1   
    80    33    90 1   
    81    33   118 1   
    82    34    36 1   
    83    34    91 1   
    84    34    92 1   
    85    35    42 1   
    86    35    93 1   
    87    35    94 1   
    88    36    37 1   
    89    36    95 1   
    90    36    96 1   
    91    37    38 1   
    92    37    97 1   
    93    37    98 1   
    94    38    39 1   
    95    38    99 1   
    96    38   100 1   
    97    39    40 1   
    98    39   101 1   
    99    39   102 1   
   100    40   103 1   
   101    40   104 1   
   102    40   105 1   
   103    41   106 1   
   104    42    51 1   
   105    42   107 1   
   106    43    44 1   
   107    43    51 1   
   108    43    52 2   
   109    44    45 1   
   110    44   108 1   
   111    44   109 1   
   112    45    46 1   
   113    45   110 1   
   114    45   111 1   
   115    46   112 1   
   116    46   113 1   
   117    49   118 1   
   118    50   118 2   
   119    54   115 1   
   120    56   117 1   
   121    57   117 2   
   122   114   116 1   
@<TRIPOS>SUBSTRUCTURE
     1 VUK         1 TEMP              0 ****  ****    0 ROOT
