@<TRIPOS>MOLECULE
VUK
  118   122     1     0     0
SMALL
abcg2


@<TRIPOS>ATOM
      1 C10         -1.8980    16.2760    88.5320 ca         1 VUK      -0.059300
      2 C11         -3.0500    17.0050    88.8440 ca         1 VUK      -0.117000
      3 C12         -3.0100    18.0730    89.7190 ca         1 VUK      -0.071500
      4 C13         -1.7980    18.4410    90.3080 ca         1 VUK       0.076400
      5 C18         -3.5240    23.1300    93.4080 ca         1 VUK      -0.121000
      6 C19         -2.2990    23.5280    93.9220 ca         1 VUK      -0.090000
      7 C20         -1.1470    22.8080    93.6120 ca         1 VUK      -0.121000
      8 C21         -1.2150    21.6960    92.7930 ca         1 VUK      -0.073000
      9 N           -1.6210    19.5280    91.1780 ne         1 VUK      -0.203400
     10 C           -4.2410    10.3570    84.0690 c3         1 VUK      -0.113100
     11 O           -5.7820     8.4480    84.0770 os         1 VUK      -0.473100
     12 C1          -4.5050     8.9380    84.5680 c3         1 VUK       0.229000
     13 C14         -0.6490    17.7110    90.0190 ca         1 VUK      -0.071500
     14 C15         -0.7010    16.6410    89.1400 ca         1 VUK      -0.117000
     15 C16         -2.4490    21.2940    92.2750 ca         1 VUK       0.075400
     16 C17         -3.5980    22.0160    92.5840 ca         1 VUK      -0.073000
     17 C2          -6.9490     9.0550    84.2690 c          1 VUK       0.607100
     18 C22         -2.1120     8.2480    86.6290 c5         1 VUK       0.152000
     19 C23         -1.3810     8.5910    85.3290 c5         1 VUK       0.247500
     20 C24          0.1540     7.6840    86.7620 c          1 VUK       0.639100
     21 C25         -0.9400     8.3100    87.6360 c5         1 VUK       0.050000
     22 C26         -1.1490     7.5840    88.9470 c3         1 VUK      -0.117100
     23 C27         -2.0540     8.2000    84.0490 c2         1 VUK      -0.123400
     24 C28         -1.4010     8.0580    82.8920 c2         1 VUK      -0.070400
     25 C29          0.0440     8.2590    82.5840 c3         1 VUK      -0.044900
     26 C3          -8.0580     8.2740    83.6230 c3         1 VUK      -0.159100
     27 C30         -2.3230     7.5240    81.8380 c5         1 VUK       0.175500
     28 C32         -2.1220     8.3640    78.2440 ce         1 VUK      -0.170400
     29 C33         -2.3320     7.6100    76.9600 c3         1 VUK      -0.041900
     30 C34         -1.7620     9.6560    78.2370 c2         1 VUK      -0.132200
     31 C35         -1.5160    10.6160    79.3590 c3         1 VUK      -0.058900
     32 C36         -3.7100     7.8360    82.3910 c5         1 VUK       0.153300
     33 C38         -6.3310     5.8780    80.7060 c3         1 VUK      -0.136400
     34 C39         -7.2720     6.0490    79.5220 c3         1 VUK      -0.066400
     35 C4          -4.5600     8.8200    86.1010 c3         1 VUK      -0.107400
     36 C40         -8.4560     6.9710    79.7990 c3         1 VUK      -0.073400
     37 C41         -9.3120     7.2520    78.5690 c3         1 VUK      -0.073400
     38 C42         -9.9960     6.0270    77.9730 c3         1 VUK      -0.077400
     39 C43        -10.8660     6.3630    76.7690 c3         1 VUK      -0.075400
     40 C44        -11.5500     5.1410    76.1710 c3         1 VUK      -0.088100
     41 C45         -3.5370     7.9120    83.9170 c5         1 VUK      -0.009500
     42 C5          -3.3200     9.1390    86.9280 c3         1 VUK       0.179300
     43 C6          -2.9550    11.3880    87.7020 c          1 VUK       0.617100
     44 C7          -2.4500    12.7080    87.1900 c3         1 VUK      -0.138400
     45 C8          -2.4420    13.8290    88.2160 c3         1 VUK      -0.063400
     46 C9          -1.9570    15.1280    87.5690 c3         1 VUK      -0.036100
     47 N1          -2.6390    20.1890    91.4240 nf         1 VUK      -0.200400
     48 O1          -7.1040    10.0870    84.8710 o          1 VUK      -0.491000
     49 O10         -4.6640     6.8480    82.0280 os         1 VUK      -0.432100
     50 O11         -5.4170     8.0750    80.3140 o          1 VUK      -0.490000
     51 O2          -2.9530    10.4930    86.7120 os         1 VUK      -0.451100
     52 O3          -3.3250    11.1560    88.8220 o          1 VUK      -0.481000
     53 O5          -0.1320     7.8820    85.4770 os         1 VUK      -0.410100
     54 O6          -0.5900     9.6600    87.8340 oh         1 VUK      -0.650000
     55 O7           1.1570     7.1320    87.1160 o          1 VUK      -0.482000
     56 O8          -2.0830     8.1860    80.5970 os         1 VUK      -0.438100
     57 O9          -2.7930     6.4250    79.4190 o          1 VUK      -0.497000
     58 H1          -3.9910    16.7350    88.3780 ha         1 VUK       0.115500
     59 H2          -3.9110    18.6320    89.9350 ha         1 VUK       0.130500
     60 H3          -4.4210    23.6860    93.6440 ha         1 VUK       0.116000
     61 H4          -2.2360    24.3980    94.5630 ha         1 VUK       0.114000
     62 H5          -0.1920    23.1210    94.0120 ha         1 VUK       0.116000
     63 H6          -0.3190    21.1410    92.5520 ha         1 VUK       0.129500
     64 H8          -3.1770    10.5880    84.0970 hc         1 VUK       0.055700
     65 H9          -4.5680    10.4810    83.0370 hc         1 VUK       0.055700
     66 H10         -4.7550    11.1030    84.6680 hc         1 VUK       0.055700
     67 H11          0.2870    18.0010    90.4790 ha         1 VUK       0.130500
     68 H12          0.2050    16.0910    88.9130 ha         1 VUK       0.115500
     69 H13         -4.5460    21.6940    92.1720 ha         1 VUK       0.129500
     70 H14         -1.1510     9.6590    85.3010 h1         1 VUK       0.096700
     71 H15         -0.2650     7.6940    89.5760 hc         1 VUK       0.059367
     72 H16         -1.9960     8.0070    89.4900 hc         1 VUK       0.059367
     73 H17         -1.3140     6.5160    88.8200 hc         1 VUK       0.059367
     74 H18          0.5460     8.8980    83.3060 hc         1 VUK       0.054033
     75 H19          0.5750     7.3050    82.5540 hc         1 VUK       0.054033
     76 H20          0.1620     8.7170    81.6030 hc         1 VUK       0.054033
     77 H21         -9.0210     8.7160    83.8580 hc         1 VUK       0.069700
     78 H22         -7.9300     8.2670    82.5400 hc         1 VUK       0.069700
     79 H23         -8.0460     7.2360    83.9550 hc         1 VUK       0.069700
     80 H24         -2.1720     6.4460    81.7160 h1         1 VUK       0.098700
     81 H25         -3.3590     7.2520    76.8700 hc         1 VUK       0.047367
     82 H26         -2.1240     8.2460    76.1020 hc         1 VUK       0.047367
     83 H27         -1.6830     6.7360    76.8950 hc         1 VUK       0.047367
     84 H28         -1.6280    10.0840    77.2480 ha         1 VUK       0.167000
     85 H29         -1.3640    11.6160    78.9580 hc         1 VUK       0.050033
     86 H30         -2.3440    10.6590    80.0650 hc         1 VUK       0.050033
     87 H31         -0.6240    10.3520    79.9280 hc         1 VUK       0.050033
     88 H32         -4.0080     8.8080    81.9960 h1         1 VUK       0.086700
     89 H33         -6.8900     5.6460    81.6180 hc         1 VUK       0.073700
     90 H34         -5.6700     5.0200    80.5450 hc         1 VUK       0.073700
     91 H35         -7.6390     5.0580    79.2470 hc         1 VUK       0.052700
     92 H36         -6.7130     6.4140    78.6560 hc         1 VUK       0.052700
     93 H37         -5.3410     9.4860    86.4690 hc         1 VUK       0.072200
     94 H38         -4.8850     7.8090    86.3530 hc         1 VUK       0.072200
     95 H39         -8.0940     7.9240    80.1930 hc         1 VUK       0.038200
     96 H40         -9.0760     6.5310    80.5890 hc         1 VUK       0.038200
     97 H41         -8.6890     7.7260    77.8020 hc         1 VUK       0.040200
     98 H42        -10.0780     7.9890    78.8300 hc         1 VUK       0.040200
     99 H43        -10.6090     5.5430    78.7430 hc         1 VUK       0.036700
    100 H44         -9.2470     5.2870    77.6740 hc         1 VUK       0.036700
    101 H45        -10.2500     6.8480    76.0050 hc         1 VUK       0.036700
    102 H46        -11.6210     7.0990    77.0600 hc         1 VUK       0.036700
    103 H47        -12.1600     5.4060    75.3060 hc         1 VUK       0.031033
    104 H48        -10.8180     4.4000    75.8440 hc         1 VUK       0.031033
    105 H49        -12.2030     4.6580    76.9000 hc         1 VUK       0.031033
    106 H50         -3.7580     6.9310    84.3500 hc         1 VUK       0.100700
    107 H51         -3.6060     8.9900    87.9740 h1         1 VUK       0.074700
    108 H52         -1.4420    12.5480    86.7960 hc         1 VUK       0.073200
    109 H53         -3.0590    12.9900    86.3250 hc         1 VUK       0.073200
    110 H54         -3.4440    13.9750    88.6250 hc         1 VUK       0.060200
    111 H55         -1.7920    13.5700    89.0540 hc         1 VUK       0.060200
    112 H56         -0.9670    14.9670    87.1340 hc         1 VUK       0.048200
    113 H57         -2.6240    15.3830    86.7400 hc         1 VUK       0.048200
    114 H59         -2.9630     6.6160    87.3070 ho         1 VUK       0.454000
    115 H60          0.1360     9.7090    88.4670 ho         1 VUK       0.467000
    116 O4          -2.4950     6.9030    86.5130 oh         1 VUK      -0.638000
    117 C31         -2.3720     7.5570    79.4600 c          1 VUK       0.610300
    118 C37         -5.4460     7.0660    80.9690 c          1 VUK       0.605100
@<TRIPOS>BOND
     1     1     2 ar  
     2     1    14 ar  
     3     1    46 1   
     4     2     3 ar  
     5     2    58 1   
     6     3     4 ar  
     7     3    59 1   
     8     4     9 1   
     9     4    13 ar  
    10     5     6 ar  
    11     5    16 ar  
    12     5    60 1   
    13     6     7 ar  
    14     6    61 1   
    15     7     8 ar  
    16     7    62 1   
    17     8    15 ar  
    18     8    63 1   
    19     9    47 2   
    20    10    12 1   
    21    10    64 1   
    22    10    65 1   
    23    10    66 1   
    24    11    12 1   
    25    11    17 1   
    26    12    35 1   
    27    12    41 1   
    28    13    14 ar  
    29    13    67 1   
    30    14    68 1   
    31    15    16 ar  
    32    15    47 1   
    33    16    69 1   
    34    17    26 1   
    35    17    48 2   
    36    18    19 1   
    37    18    21 1   
    38    18    42 1   
    39    18   116 1   
    40    19    23 1   
    41    19    53 1   
    42    19    70 1   
    43    20    21 1   
    44    20    53 1   
    45    20    55 2   
    46    21    22 1   
    47    21    54 1   
    48    22    71 1   
    49    22    72 1   
    50    22    73 1   
    51    23    24 2   
    52    23    41 1   
    53    24    25 1   
    54    24    27 1   
    55    25    74 1   
    56    25    75 1   
    57    25    76 1   
    58    26    77 1   
    59    26    78 1   
    60    26    79 1   
    61    27    32 1   
    62    27    56 1   
    63    27    80 1   
    64    28    29 1   
    65    28    30 2   
    66    28   117 1   
    67    29    81 1   
    68    29    82 1   
    69    29    83 1   
    70    30    31 1   
    71    30    84 1   
    72    31    85 1   
    73    31    86 1   
    74    31    87 1   
    75    32    41 1   
    76    32    49 1   
    77    32    88 1   
    78    33    34 1   
    79    33    89 1   
    80    33    90 1   
    81    33   118 1   
    82    34    36 1   
    83    34    91 1   
    84    34    92 1   
    85    35    42 1   
    86    35    93 1   
    87    35    94 1   
    88    36    37 1   
    89    36    95 1   
    90    36    96 1   
    91    37    38 1   
    92    37    97 1   
    93    37    98 1   
    94    38    39 1   
    95    38    99 1   
    96    38   100 1   
    97    39    40 1   
    98    39   101 1   
    99    39   102 1   
   100    40   103 1   
   101    40   104 1   
   102    40   105 1   
   103    41   106 1   
   104    42    51 1   
   105    42   107 1   
   106    43    44 1   
   107    43    51 1   
   108    43    52 2   
   109    44    45 1   
   110    44   108 1   
   111    44   109 1   
   112    45    46 1   
   113    45   110 1   
   114    45   111 1   
   115    46   112 1   
   116    46   113 1   
   117    49   118 1   
   118    50   118 2   
   119    54   115 1   
   120    56   117 1   
   121    57   117 2   
   122   114   116 1   
@<TRIPOS>SUBSTRUCTURE
     1 VUK         1 TEMP              0 ****  ****    0 ROOT
