@<TRIPOS>MOLECULE
VUL
   66    68     1     0     0
SMALL
abcg2


@<TRIPOS>ATOM
      1 C1         108.2180   172.0690   143.1100 c3         1 VUL      -0.090100
      2 C2         109.5060   172.8630   143.2810 c3         1 VUL      -0.075400
      3 O1         117.2760   178.0010   144.8860 o          1 VUL      -0.507100
      4 C5         111.1090   175.4780   144.0520 c3         1 VUL      -0.075400
      5 C6         112.3000   176.3510   144.4410 c3         1 VUL      -0.073400
      6 C7         113.6540   175.6670   144.2860 c3         1 VUL      -0.074400
      7 C8         114.8170   176.6260   144.5070 c3         1 VUL      -0.068400
      8 N1         118.5560   176.1530   144.6140 ns         1 VUL      -0.636300
      9 C4         110.9420   174.2280   144.9110 c3         1 VUL      -0.070400
     10 C3         109.6340   173.4790   144.6700 c3         1 VUL      -0.076400
     11 S1         120.0180   176.8510   144.9790 s6         1 VUL       1.441500
     12 N2         115.7370   177.2680   149.0560 na         1 VUL      -0.298300
     13 O2         120.2190   178.0520   144.2190 o          1 VUL      -0.535000
     14 N3         114.2530   175.9010   148.1000 nc         1 VUL      -0.553100
     15 O3         120.9770   175.7770   144.9330 o          1 VUL      -0.535000
     16 N4         114.2140   178.8860   150.0270 nb         1 VUL      -0.229000
     17 O4         119.8190   177.3490   146.4720 os         1 VUL      -0.547700
     18 N5         111.9310   178.3600   149.5670 nb         1 VUL      -0.299000
     19 O5         117.8880   177.8490   148.4010 os         1 VUL      -0.421000
     20 O6         118.4100   177.9590   151.4470 oh         1 VUL      -0.685000
     21 O7         119.8280   175.8320   150.5710 oh         1 VUL      -0.681000
     22 C9         116.1590   175.9220   144.3890 c3         1 VUL      -0.157400
     23 C10        117.3380   176.8210   144.6520 c          1 VUL       0.624100
     24 C11        119.5450   176.3780   147.5020 c3         1 VUL       0.203600
     25 C12        119.0730   177.1390   148.7140 c5         1 VUL       0.161300
     26 C13        118.6890   176.2150   149.8690 c5         1 VUL       0.146300
     27 C14        117.6840   177.0860   150.6330 c5         1 VUL       0.095300
     28 C15        116.9960   177.8450   149.4810 c5         1 VUL       0.275300
     29 C16        114.5040   177.7860   149.3350 ca         1 VUL       0.133500
     30 C17        113.5990   176.9240   148.7370 ca         1 VUL      -0.101600
     31 C18        115.5140   176.1400   148.3110 cd         1 VUL       0.404700
     32 C19        112.9100   179.0940   150.0870 ca         1 VUL       0.189900
     33 C20        112.2390   177.2560   148.8790 ca         1 VUL       0.453900
     34 H1         108.1430   171.6360   142.1120 hc         1 VUL       0.031367
     35 H2         108.1590   171.2500   143.8300 hc         1 VUL       0.031367
     36 H3         107.3410   172.7010   143.2610 hc         1 VUL       0.031367
     37 H4         110.3650   172.2110   143.0970 hc         1 VUL       0.037700
     38 H5         109.5500   173.6450   142.5190 hc         1 VUL       0.037700
     39 H6         111.2020   175.2000   142.9980 hc         1 VUL       0.039200
     40 H7         110.1960   176.0780   144.1250 hc         1 VUL       0.039200
     41 H8         112.2880   177.2550   143.8250 hc         1 VUL       0.042700
     42 H9         112.1820   176.6870   145.4770 hc         1 VUL       0.042700
     43 H10        113.7260   175.2260   143.2860 hc         1 VUL       0.037200
     44 H11        113.7340   174.8350   144.9930 hc         1 VUL       0.037200
     45 H12        114.7270   177.0810   145.4960 hc         1 VUL       0.060200
     46 H13        114.7600   177.4430   143.7830 hc         1 VUL       0.060200
     47 H14        118.5810   175.1540   144.4410 hn         1 VUL       0.340500
     48 H15        110.9880   174.5190   145.9650 hc         1 VUL       0.032700
     49 H16        111.7820   173.5450   144.7510 hc         1 VUL       0.032700
     50 H17        108.7920   174.1600   144.8430 hc         1 VUL       0.036200
     51 H18        109.5370   172.6840   145.4160 hc         1 VUL       0.036200
     52 H19        110.2960   176.7720   148.5110 hn         1 VUL       0.508000
     53 H20        111.4520   175.6560   147.8810 hn         1 VUL       0.508000
     54 H22        119.6070   175.1000   151.1540 ho         1 VUL       0.516000
     55 H23        116.2090   175.0800   145.0880 hc         1 VUL       0.060700
     56 H24        116.2780   175.4820   143.3930 hc         1 VUL       0.060700
     57 H25        118.7740   175.6760   147.1700 h1         1 VUL       0.055200
     58 H26        120.4530   175.8230   147.7440 h1         1 VUL       0.055200
     59 H27        119.8570   177.8330   149.0420 h1         1 VUL       0.110700
     60 H28        118.1490   175.3430   149.4710 h1         1 VUL       0.035700
     61 H29        116.9580   176.4930   151.2020 h1         1 VUL       0.064700
     62 H30        116.7590   178.8680   149.7900 h2         1 VUL       0.118700
     63 H31        116.3210   175.5320   147.9310 h5         1 VUL       0.057800
     64 H32        112.5920   179.9770   150.6320 h5         1 VUL       0.049100
     65 H21        117.7920   178.4970   151.9540 ho         1 VUL       0.517000
     66 N6         111.2570   176.5220   148.3510 nv         1 VUL      -1.063900
@<TRIPOS>BOND
     1     1     2 1   
     2     1    34 1   
     3     1    35 1   
     4     1    36 1   
     5     2    10 1   
     6     2    37 1   
     7     2    38 1   
     8     3    23 2   
     9     4     5 1   
    10     4     9 1   
    11     4    39 1   
    12     4    40 1   
    13     5     6 1   
    14     5    41 1   
    15     5    42 1   
    16     6     7 1   
    17     6    43 1   
    18     6    44 1   
    19     7    22 1   
    20     7    45 1   
    21     7    46 1   
    22     8    11 1   
    23     8    23 1   
    24     8    47 1   
    25     9    10 1   
    26     9    48 1   
    27     9    49 1   
    28    10    50 1   
    29    10    51 1   
    30    11    13 2   
    31    11    15 2   
    32    11    17 1   
    33    12    28 1   
    34    12    29 1   
    35    12    31 1   
    36    14    30 1   
    37    14    31 2   
    38    16    29 ar  
    39    16    32 ar  
    40    17    24 1   
    41    18    32 ar  
    42    18    33 ar  
    43    19    25 1   
    44    19    28 1   
    45    20    27 1   
    46    20    65 1   
    47    21    26 1   
    48    21    54 1   
    49    22    23 1   
    50    22    55 1   
    51    22    56 1   
    52    24    25 1   
    53    24    57 1   
    54    24    58 1   
    55    25    26 1   
    56    25    59 1   
    57    26    27 1   
    58    26    60 1   
    59    27    28 1   
    60    27    61 1   
    61    28    62 1   
    62    29    30 ar  
    63    30    33 ar  
    64    31    63 1   
    65    32    64 1   
    66    33    66 1   
    67    52    66 1   
    68    53    66 1   
@<TRIPOS>SUBSTRUCTURE
     1 VUL         1 TEMP              0 ****  ****    0 ROOT
