@<TRIPOS>MOLECULE
VUL
   66    68     1     0     0
SMALL
No Charge or Current Charge


@<TRIPOS>ATOM
      1 C1         107.8350   174.0000   143.8290 c3         1 VUL      -0.090100
      2 C2         109.3060   174.4580   143.8060 c3         1 VUL      -0.075400
      3 O1         118.5480   177.3690   143.4840 o          1 VUL      -0.507100
      4 C5         111.7790   176.2080   144.8390 c3         1 VUL      -0.075400
      5 C6         113.2450   176.6420   145.0670 c3         1 VUL      -0.073400
      6 C7         114.2820   175.9270   144.1700 c3         1 VUL      -0.074400
      7 C8         115.7220   176.4140   144.4370 c3         1 VUL      -0.068400
      8 N1         118.9780   175.4130   144.5510 ns         1 VUL      -0.636300
      9 C4         111.4940   174.7260   145.1850 c3         1 VUL      -0.070400
     10 C3         109.9930   174.3500   145.1870 c3         1 VUL      -0.076400
     11 S1         120.4350   175.7610   145.2630 s6         1 VUL       1.441500
     12 N2         115.1850   176.5720   148.5930 na         1 VUL      -0.298300
     13 O2         121.2850   176.4680   144.3000 o          1 VUL      -0.535000
     14 N3         114.3490   174.4180   148.5740 nc         1 VUL      -0.553100
     15 O3         120.8980   174.5470   145.9430 o          1 VUL      -0.535000
     16 N4         113.0450   177.7020   149.0890 nb         1 VUL      -0.229000
     17 O4         119.8830   176.8340   146.3750 os         1 VUL      -0.547700
     18 N5         111.1640   176.1980   149.3320 nb         1 VUL      -0.299000
     19 O5         117.1960   177.3180   147.6020 os         1 VUL      -0.421000
     20 O6         117.2890   179.3500   150.0490 oh         1 VUL      -0.685000
     21 O7         119.1340   177.4220   150.6920 oh         1 VUL      -0.681000
     22 C9         116.7850   175.7270   143.5460 c3         1 VUL      -0.157400
     23 C10        118.1850   176.2650   143.8560 c          1 VUL       0.624100
     24 C11        119.4260   176.2970   147.6300 c3         1 VUL       0.203600
     25 C12        118.4780   177.3320   148.2780 c5         1 VUL       0.161300
     26 C13        118.1140   177.0440   149.7640 c5         1 VUL       0.146300
     27 C14        116.8750   177.9720   149.9080 c5         1 VUL       0.095300
     28 C15        116.1530   177.6670   148.5450 c5         1 VUL       0.275300
     29 C16        113.8420   176.6410   148.8550 ca         1 VUL       0.133500
     30 C17        113.3580   175.3570   148.8420 ca         1 VUL      -0.101600
     31 C18        115.4340   175.1980   148.4180 cd         1 VUL       0.404700
     32 C19        111.7390   177.4240   149.3140 ca         1 VUL       0.189900
     33 C20        111.9830   175.1630   149.0920 ca         1 VUL       0.453900
     34 H1         107.3890   174.0960   142.8320 hc         1 VUL       0.031367
     35 H2         107.7590   172.9510   144.1390 hc         1 VUL       0.031367
     36 H3         107.2490   174.6110   144.5270 hc         1 VUL       0.031367
     37 H4         109.8560   173.8510   143.0760 hc         1 VUL       0.037700
     38 H5         109.3420   175.4960   143.4540 hc         1 VUL       0.037700
     39 H6         111.5090   176.4040   143.7940 hc         1 VUL       0.039200
     40 H7         111.1340   176.8460   145.4570 hc         1 VUL       0.039200
     41 H8         113.3170   177.7230   144.8990 hc         1 VUL       0.042700
     42 H9         113.5040   176.4740   146.1180 hc         1 VUL       0.042700
     43 H10        114.0290   176.0970   143.1160 hc         1 VUL       0.037200
     44 H11        114.2390   174.8450   144.3440 hc         1 VUL       0.037200
     45 H12        115.9680   176.2310   145.4900 hc         1 VUL       0.060200
     46 H13        115.7690   177.5000   144.2840 hc         1 VUL       0.060200
     47 H14        118.6240   174.5220   144.8500 hn         1 VUL       0.340500
     48 H15        111.9040   174.5100   146.1790 hc         1 VUL       0.032700
     49 H16        112.0210   174.0740   144.4800 hc         1 VUL       0.032700
     50 H17        109.4630   174.9840   145.9090 hc         1 VUL       0.036200
     51 H18        109.8980   173.3190   145.5490 hc         1 VUL       0.036200
     52 H19        110.5170   173.8300   149.5930 hn         1 VUL       0.508000
     53 H20        112.0420   173.1320   149.1630 hn         1 VUL       0.508000
     54 H22        118.9500   178.3790   150.8650 ho         1 VUL       0.516000
     55 H23        116.7450   174.6450   143.7240 hc         1 VUL       0.060700
     56 H24        116.5500   175.9400   142.4960 hc         1 VUL       0.060700
     57 H25        118.8680   175.3590   147.4980 h1         1 VUL       0.055200
     58 H26        120.2760   176.1020   148.2990 h1         1 VUL       0.055200
     59 H27        118.9230   178.3310   148.1750 h1         1 VUL       0.110700
     60 H28        117.8400   175.9890   149.9040 h1         1 VUL       0.035700
     61 H29        116.2510   177.6690   150.7610 h1         1 VUL       0.064700
     62 H30        115.6000   178.5460   148.1910 h2         1 VUL       0.118700
     63 H31        116.4300   174.8370   148.1920 h5         1 VUL       0.057800
     64 H32        111.0850   178.2730   149.5050 h5         1 VUL       0.049100
     65 H21        116.4860   179.8880   150.2500 ho         1 VUL       0.517000
     66 N6         111.4120   173.9290   149.1240 nv         1 VUL      -1.063900
@<TRIPOS>BOND
     1     1     2 1   
     2     1    34 1   
     3     1    35 1   
     4     1    36 1   
     5     2    10 1   
     6     2    37 1   
     7     2    38 1   
     8     3    23 2   
     9     4     5 1   
    10     4     9 1   
    11     4    39 1   
    12     4    40 1   
    13     5     6 1   
    14     5    41 1   
    15     5    42 1   
    16     6     7 1   
    17     6    43 1   
    18     6    44 1   
    19     7    22 1   
    20     7    45 1   
    21     7    46 1   
    22     8    11 1   
    23     8    23 1   
    24     8    47 1   
    25     9    10 1   
    26     9    48 1   
    27     9    49 1   
    28    10    50 1   
    29    10    51 1   
    30    11    13 2   
    31    11    15 2   
    32    11    17 1   
    33    12    28 1   
    34    12    29 1   
    35    12    31 1   
    36    14    30 1   
    37    14    31 2   
    38    16    29 ar  
    39    16    32 ar  
    40    17    24 1   
    41    18    32 ar  
    42    18    33 ar  
    43    19    25 1   
    44    19    28 1   
    45    20    27 1   
    46    20    65 1   
    47    21    26 1   
    48    21    54 1   
    49    22    23 1   
    50    22    55 1   
    51    22    56 1   
    52    24    25 1   
    53    24    57 1   
    54    24    58 1   
    55    25    26 1   
    56    25    59 1   
    57    26    27 1   
    58    26    60 1   
    59    27    28 1   
    60    27    61 1   
    61    28    62 1   
    62    29    30 ar  
    63    30    33 ar  
    64    31    63 1   
    65    32    64 1   
    66    33    66 1   
    67    52    66 1   
    68    53    66 1   
@<TRIPOS>SUBSTRUCTURE
     1 VUL         1 TEMP              0 ****  ****    0 ROOT
