@<TRIPOS>MOLECULE
VUM
   59    62     1     0     0
SMALL
No Charge or Current Charge


@<TRIPOS>ATOM
      1 C01        102.2120   133.9790    99.4190 c          1 VUM       0.548200
      2 N01        101.3940   134.5260   100.3690 ns         1 VUM      -0.364100
      3 O01        103.0030   134.6490    98.7750 o          1 VUM      -0.563000
      4 C02        102.0400   132.5330    99.2640 cc         1 VUM      -0.320200
      5 N02         99.5580   131.8240   103.2720 n3         1 VUM      -0.737600
      6 O02        100.5160   125.8110   108.9280 oh         1 VUM      -0.658000
      7 C03        101.1390   131.7890   100.0040 cd         1 VUM      -0.086000
      8 N03        100.0940   129.8120   105.5510 n3         1 VUM      -0.741600
      9 C04        100.4740   133.8240   101.1360 cc         1 VUM      -0.010400
     10 C05        100.3140   132.4570   100.9860 cd         1 VUM      -0.211200
     11 C06         99.3160   131.6860   101.8190 c3         1 VUM       0.238000
     12 C07         98.4860   131.2040   104.1250 c6         1 VUM       0.151300
     13 C08         98.8860   129.7870   104.6450 c6         1 VUM       0.150300
     14 C09        101.0070   130.9660   105.1890 c6         1 VUM       0.150300
     15 C10        100.9300   131.3560   103.6790 c6         1 VUM       0.151300
     16 C11        100.8020   128.4860   105.6350 c6         1 VUM       0.190500
     17 C12        101.9450   128.5250   106.7140 c6         1 VUM      -0.072900
     18 C13        101.9170   127.3470   107.7260 c6         1 VUM      -0.082400
     19 C14        100.5280   127.1510   108.4210 c6         1 VUM       0.237300
     20 C15        100.3630   128.1650   109.5960 ca         1 VUM      -0.106300
     21 C16        100.0450   129.5190   109.3370 ca         1 VUM      -0.077000
     22 C17         99.9190   130.4450   110.3850 ca         1 VUM      -0.123000
     23 C18        100.1100   130.0430   111.7140 ca         1 VUM      -0.059000
     24 C19        100.4310   128.7010   112.0070 ca         1 VUM      -0.201300
     25 C20        100.6600   128.2370   113.4500 c3         1 VUM       0.355300
     26 C21        100.5630   127.7780   110.9460 ca         1 VUM      -0.054000
     27 C22         99.3530   127.2470   107.3810 c6         1 VUM      -0.082400
     28 C23         99.8430   127.2780   105.9110 c6         1 VUM      -0.072900
     29 F01        100.1930   129.1160   114.3670 f          1 VUM      -0.115333
     30 F02        101.9760   128.0640   113.7070 f          1 VUM      -0.115333
     31 F03        100.0490   127.0570   113.7020 f          1 VUM      -0.115333
     32 H1         101.4940   135.5260   100.4970 hn         1 VUM       0.325500
     33 H2         102.6780   132.0730    98.5180 ha         1 VUM       0.208000
     34 H5         101.0540   130.7150    99.8470 ha         1 VUM       0.182000
     35 H7          99.9270   134.4450   101.8410 h4         1 VUM       0.216000
     36 H8          98.3120   132.0590   101.5710 h1         1 VUM       0.037700
     37 H9          99.3450   130.6260   101.5310 h1         1 VUM       0.037700
     38 H10         98.2940   131.8430   104.9990 h1         1 VUM       0.049700
     39 H11         97.5350   131.1360   103.5760 h1         1 VUM       0.049700
     40 H12         98.0260   129.3550   105.1770 h1         1 VUM       0.046950
     41 H13         99.0750   129.1510   103.7680 h1         1 VUM       0.046950
     42 H14        102.0580   130.7600   105.4370 h1         1 VUM       0.046950
     43 H15        100.7260   131.8510   105.7790 h1         1 VUM       0.046950
     44 H16        101.2260   130.4750   103.0910 h1         1 VUM       0.049700
     45 H17        101.6730   132.1400   103.4700 h1         1 VUM       0.049700
     46 H18        101.2740   128.2900   104.6600 h1         1 VUM       0.023700
     47 H19        102.9170   128.5330   106.2030 hc         1 VUM       0.047700
     48 H20        101.9150   129.4620   107.2850 hc         1 VUM       0.047700
     49 H21        102.2050   126.4290   107.1950 hc         1 VUM       0.055700
     50 H22        102.6950   127.5010   108.4870 hc         1 VUM       0.055700
     51 H23         99.8960   129.8710   108.3200 ha         1 VUM       0.147000
     52 H24         99.6750   131.4810   110.1630 ha         1 VUM       0.119000
     53 H25        100.0130   130.7800   112.5080 ha         1 VUM       0.130000
     54 H26        100.8270   126.7520   111.1910 ha         1 VUM       0.129000
     55 H27         98.7280   128.1300   107.5610 hc         1 VUM       0.055700
     56 H28         98.6640   126.4010   107.5070 hc         1 VUM       0.055700
     57 H29         98.9850   127.2670   105.2280 hc         1 VUM       0.047700
     58 H30        100.3720   126.3420   105.6890 hc         1 VUM       0.047700
     59 H4         101.3870   125.6690   109.3540 ho         1 VUM       0.444000
@<TRIPOS>BOND
     1     1     2 1   
     2     1     3 2   
     3     1     4 1   
     4     2     9 1   
     5     2    32 1   
     6     4     7 2   
     7     4    33 1   
     8     5    11 1   
     9     5    12 1   
    10     5    15 1   
    11     6    19 1   
    12     6    59 1   
    13     7    10 1   
    14     7    34 1   
    15     8    13 1   
    16     8    14 1   
    17     8    16 1   
    18     9    10 2   
    19     9    35 1   
    20    10    11 1   
    21    11    36 1   
    22    11    37 1   
    23    12    13 1   
    24    12    38 1   
    25    12    39 1   
    26    13    40 1   
    27    13    41 1   
    28    14    15 1   
    29    14    42 1   
    30    14    43 1   
    31    15    44 1   
    32    15    45 1   
    33    16    17 1   
    34    16    28 1   
    35    16    46 1   
    36    17    18 1   
    37    17    47 1   
    38    17    48 1   
    39    18    19 1   
    40    18    49 1   
    41    18    50 1   
    42    19    20 1   
    43    19    27 1   
    44    20    21 ar  
    45    20    26 ar  
    46    21    22 ar  
    47    21    51 1   
    48    22    23 ar  
    49    22    52 1   
    50    23    24 ar  
    51    23    53 1   
    52    24    25 1   
    53    24    26 ar  
    54    25    29 1   
    55    25    30 1   
    56    25    31 1   
    57    26    54 1   
    58    27    28 1   
    59    27    55 1   
    60    27    56 1   
    61    28    57 1   
    62    28    58 1   
@<TRIPOS>SUBSTRUCTURE
     1 VUM         1 TEMP              0 ****  ****    0 ROOT
