@<TRIPOS>MOLECULE
VUM
   59    62     1     0     0
SMALL
abcg2


@<TRIPOS>ATOM
      1 C01        101.8000   134.1630    99.4790 c          1 VUM       0.548200
      2 N01        101.4650   134.4340   100.7900 ns         1 VUM      -0.364100
      3 O01        102.4420   134.9740    98.8130 o          1 VUM      -0.563000
      4 C02        101.3320   132.8810    99.0260 cc         1 VUM      -0.320200
      5 N02         99.7870   131.6670   103.4630 n3         1 VUM      -0.737600
      6 O02        100.3110   125.8880   108.9600 oh         1 VUM      -0.658000
      7 C03        100.6330   132.0520    99.8460 cd         1 VUM      -0.086000
      8 N03        100.3050   129.6560   105.5930 n3         1 VUM      -0.741600
      9 C04        100.7610   133.6170   101.6080 cc         1 VUM      -0.010400
     10 C05        100.3180   132.4050   101.1830 cd         1 VUM      -0.211200
     11 C06         99.4940   131.4980   102.0580 c3         1 VUM       0.238000
     12 C07         98.7760   131.0980   104.3490 c6         1 VUM       0.151300
     13 C08         99.1040   129.6740   104.7640 c6         1 VUM       0.150300
     14 C09        101.1890   130.7770   105.2650 c6         1 VUM       0.150300
     15 C10        101.1240   131.1870   103.8030 c6         1 VUM       0.151300
     16 C11        100.9920   128.3630   105.6230 c6         1 VUM       0.190500
     17 C12        102.0710   128.3630   106.7360 c6         1 VUM      -0.072900
     18 C13        101.8880   127.2560   107.7680 c6         1 VUM      -0.082400
     19 C14        100.4730   127.1690   108.3750 c6         1 VUM       0.237300
     20 C15        100.2990   128.2580   109.4320 ca         1 VUM      -0.106300
     21 C16        100.1050   129.5930   109.0690 ca         1 VUM      -0.077000
     22 C17         99.9930   130.5840   110.0310 ca         1 VUM      -0.123000
     23 C18        100.0620   130.2710   111.3810 ca         1 VUM      -0.059000
     24 C19        100.2410   128.9470   111.7510 ca         1 VUM      -0.201300
     25 C20        100.3370   128.5550   113.1910 c3         1 VUM       0.355300
     26 C21        100.3610   127.9510   110.7850 ca         1 VUM      -0.054000
     27 C22         99.4070   127.2790   107.2610 c6         1 VUM      -0.082400
     28 C23        100.0140   127.2120   105.8680 c6         1 VUM      -0.072900
     29 F01         99.9730   129.5360   114.0220 f          1 VUM      -0.115333
     30 F02        101.5900   128.2070   113.5280 f          1 VUM      -0.115333
     31 F03         99.5650   127.4960   113.4750 f          1 VUM      -0.115333
     32 H1         101.7830   135.3180   101.1630 hn         1 VUM       0.325500
     33 H2         101.5620   132.5930    98.0090 ha         1 VUM       0.208000
     34 H5         100.3040   131.0890    99.4690 ha         1 VUM       0.182000
     35 H7         100.5860   133.9840   102.6090 h4         1 VUM       0.216000
     36 H8          98.4350   131.7180   101.8950 h1         1 VUM       0.037700
     37 H9          99.6440   130.4590   101.7150 h1         1 VUM       0.037700
     38 H10         98.6690   131.7210   105.2430 h1         1 VUM       0.049700
     39 H11         97.8070   131.1160   103.8480 h1         1 VUM       0.049700
     40 H12         98.2580   129.2530   105.3160 h1         1 VUM       0.046950
     41 H13         99.2120   129.0630   103.8520 h1         1 VUM       0.046950
     42 H14        102.2210   130.5210   105.5000 h1         1 VUM       0.046950
     43 H15        100.9470   131.6410   105.8920 h1         1 VUM       0.046950
     44 H16        101.4120   130.3260   103.1770 h1         1 VUM       0.049700
     45 H17        101.8710   131.9640   103.6150 h1         1 VUM       0.049700
     46 H18        101.4790   128.1700   104.6510 h1         1 VUM       0.023700
     47 H19        103.0660   128.2570   106.3000 hc         1 VUM       0.047700
     48 H20        102.0750   129.3240   107.2510 hc         1 VUM       0.047700
     49 H21        102.1080   126.2890   107.3070 hc         1 VUM       0.055700
     50 H22        102.6230   127.3860   108.5690 hc         1 VUM       0.055700
     51 H23        100.0310   129.8630   108.0200 ha         1 VUM       0.147000
     52 H24         99.8420   131.6120   109.7280 ha         1 VUM       0.119000
     53 H25         99.9680   131.0560   112.1180 ha         1 VUM       0.130000
     54 H26        100.4910   126.9230   111.0970 ha         1 VUM       0.129000
     55 H27         98.8380   128.2060   107.3500 hc         1 VUM       0.055700
     56 H28         98.6870   126.4700   107.4000 hc         1 VUM       0.055700
     57 H29         99.2220   127.1980   105.1180 hc         1 VUM       0.047700
     58 H30        100.5490   126.2700   105.7280 hc         1 VUM       0.047700
     59 H4         101.1380   125.6250   109.3790 ho         1 VUM       0.444000
@<TRIPOS>BOND
     1     1     2 1   
     2     1     3 2   
     3     1     4 1   
     4     2     9 1   
     5     2    32 1   
     6     4     7 2   
     7     4    33 1   
     8     5    11 1   
     9     5    12 1   
    10     5    15 1   
    11     6    19 1   
    12     6    59 1   
    13     7    10 1   
    14     7    34 1   
    15     8    13 1   
    16     8    14 1   
    17     8    16 1   
    18     9    10 2   
    19     9    35 1   
    20    10    11 1   
    21    11    36 1   
    22    11    37 1   
    23    12    13 1   
    24    12    38 1   
    25    12    39 1   
    26    13    40 1   
    27    13    41 1   
    28    14    15 1   
    29    14    42 1   
    30    14    43 1   
    31    15    44 1   
    32    15    45 1   
    33    16    17 1   
    34    16    28 1   
    35    16    46 1   
    36    17    18 1   
    37    17    47 1   
    38    17    48 1   
    39    18    19 1   
    40    18    49 1   
    41    18    50 1   
    42    19    20 1   
    43    19    27 1   
    44    20    21 ar  
    45    20    26 ar  
    46    21    22 ar  
    47    21    51 1   
    48    22    23 ar  
    49    22    52 1   
    50    23    24 ar  
    51    23    53 1   
    52    24    25 1   
    53    24    26 ar  
    54    25    29 1   
    55    25    30 1   
    56    25    31 1   
    57    26    54 1   
    58    27    28 1   
    59    27    55 1   
    60    27    56 1   
    61    28    57 1   
    62    28    58 1   
@<TRIPOS>SUBSTRUCTURE
     1 VUM         1 TEMP              0 ****  ****    0 ROOT
