@<TRIPOS>MOLECULE
VUN
   27    27     1     0     0
SMALL
abcg2


@<TRIPOS>ATOM
      1 C7          -1.6110    14.1770   -35.3180 ca         1 VUN      -0.118600
      2 C8          -0.9690    15.3830   -35.0450 ca         1 VUN      -0.095000
      3 C9          -0.1290    15.9730   -35.9850 ca         1 VUN      -0.121000
      4 O1          -3.0040    12.3990   -34.5700 o          1 VUN      -0.723500
      5 C1           2.7970    15.5620   -39.7290 c3         1 VUN       0.167300
      6 C5          -0.5610    14.1660   -37.5020 ca         1 VUN      -0.121000
      7 C6          -1.3880    13.5730   -36.5580 ca         1 VUN      -0.095000
      8 C4           0.0780    15.3780   -37.2270 ca         1 VUN      -0.127300
      9 C3           0.9560    16.0320   -38.2580 c3         1 VUN       0.216900
     10 C2           3.6100    16.8230   -39.4590 c3         1 VUN      -0.102100
     11 O2          -2.7930    14.1990   -33.2520 o          1 VUN      -0.723500
     12 C10         -2.5460    13.5370   -34.2930 c          1 VUN       0.704600
     13 O            2.0360    15.1600   -38.5800 os         1 VUN      -0.461000
     14 C            3.6780    14.3820   -40.0990 c3         1 VUN      -0.102100
     15 H1          -1.1330    15.8570   -34.0870 ha         1 VUN       0.127500
     16 H2           0.3670    16.9080   -35.7530 ha         1 VUN       0.086500
     17 H3           2.0910    15.7590   -40.5470 h1         1 VUN       0.022700
     18 H4          -0.4080    13.6900   -38.4630 ha         1 VUN       0.086500
     19 H5          -1.8810    12.6350   -36.7750 ha         1 VUN       0.127500
     20 H6           1.3250    16.9870   -37.8730 h1         1 VUN       0.014200
     21 H7           0.3790    16.2390   -39.1690 h1         1 VUN       0.014200
     22 H8           2.9710    17.6890   -39.2830 hc         1 VUN       0.037033
     23 H9           4.2490    16.6770   -38.5840 hc         1 VUN       0.037033
     24 H10          4.2460    17.0470   -40.3180 hc         1 VUN       0.037033
     25 H12          3.0740    13.4900   -40.2720 hc         1 VUN       0.037033
     26 H13          4.2390    14.6010   -41.0080 hc         1 VUN       0.037033
     27 H14          4.3900    14.1720   -39.2980 hc         1 VUN       0.037033
@<TRIPOS>BOND
     1     1     2 ar  
     2     1     7 ar  
     3     1    12 1   
     4     2     3 ar  
     5     2    15 1   
     6     3     8 ar  
     7     3    16 1   
     8     4    12 1   
     9     5    10 1   
    10     5    13 1   
    11     5    14 1   
    12     5    17 1   
    13     6     7 ar  
    14     6     8 ar  
    15     6    18 1   
    16     7    19 1   
    17     8     9 1   
    18     9    13 1   
    19     9    20 1   
    20     9    21 1   
    21    10    22 1   
    22    10    23 1   
    23    10    24 1   
    24    11    12 1   
    25    14    25 1   
    26    14    26 1   
    27    14    27 1   
@<TRIPOS>SUBSTRUCTURE
     1 VUN         1 TEMP              0 ****  ****    0 ROOT
