@<TRIPOS>MOLECULE
VUN
   27    27     1     0     0
SMALL
No Charge or Current Charge


@<TRIPOS>ATOM
      1 C7          -1.6060    14.1700   -35.2940 ca         1 VUN      -0.118600
      2 C8          -0.6540    15.1790   -35.0140 ca         1 VUN      -0.095000
      3 C9           0.1200    15.7440   -36.0430 ca         1 VUN      -0.121000
      4 O1          -3.2550    12.6870   -34.4690 o          1 VUN      -0.723500
      5 C1           2.8710    15.5360   -39.7230 c3         1 VUN       0.167300
      6 C5          -0.9820    14.3120   -37.6620 ca         1 VUN      -0.121000
      7 C6          -1.7570    13.7450   -36.6360 ca         1 VUN      -0.095000
      8 C4          -0.0390    15.3150   -37.3730 ca         1 VUN      -0.127300
      9 C3           0.7970    15.9330   -38.4880 c3         1 VUN       0.216900
     10 C2           3.4740    16.9370   -39.4700 c3         1 VUN      -0.102100
     11 O2          -2.2800    13.9540   -33.0360 o          1 VUN      -0.723500
     12 C10         -2.4440    13.5570   -34.1810 c          1 VUN       0.704600
     13 O            2.0120    15.1720   -38.6240 os         1 VUN      -0.461000
     14 C            3.9530    14.4440   -39.8170 c3         1 VUN      -0.102100
     15 H1          -0.5090    15.5290   -33.9940 ha         1 VUN       0.127500
     16 H2           0.8470    16.5170   -35.8040 ha         1 VUN       0.086500
     17 H3           2.3070    15.5490   -40.6660 h1         1 VUN       0.022700
     18 H4          -1.1150    13.9690   -38.6860 ha         1 VUN       0.086500
     19 H5          -2.4790    12.9710   -36.8880 ha         1 VUN       0.127500
     20 H6           1.0110    16.9790   -38.2370 h1         1 VUN       0.014200
     21 H7           0.2250    15.9170   -39.4250 h1         1 VUN       0.014200
     22 H8           2.7120    17.7200   -39.5540 hc         1 VUN       0.037033
     23 H9           3.9290    16.9940   -38.4740 hc         1 VUN       0.037033
     24 H10          4.2510    17.1560   -40.2130 hc         1 VUN       0.037033
     25 H12          3.4960    13.4620   -39.9880 hc         1 VUN       0.037033
     26 H13          4.6340    14.6500   -40.6520 hc         1 VUN       0.037033
     27 H14          4.5440    14.3970   -38.8950 hc         1 VUN       0.037033
@<TRIPOS>BOND
     1     1     2 ar  
     2     1     7 ar  
     3     1    12 1   
     4     2     3 ar  
     5     2    15 1   
     6     3     8 ar  
     7     3    16 1   
     8     4    12 1   
     9     5    10 1   
    10     5    13 1   
    11     5    14 1   
    12     5    17 1   
    13     6     7 ar  
    14     6     8 ar  
    15     6    18 1   
    16     7    19 1   
    17     8     9 1   
    18     9    13 1   
    19     9    20 1   
    20     9    21 1   
    21    10    22 1   
    22    10    23 1   
    23    10    24 1   
    24    11    12 1   
    25    14    25 1   
    26    14    26 1   
    27    14    27 1   
@<TRIPOS>SUBSTRUCTURE
     1 VUN         1 TEMP              0 ****  ****    0 ROOT
