@<TRIPOS>MOLECULE
VUO
   15    16     1     0     0
SMALL
No Charge or Current Charge


@<TRIPOS>ATOM
      1 C1          25.0320    31.3240    28.3230 ca         1 VUO      -0.002000
      2 C2          24.6260    30.0090    28.5930 ca         1 VUO      -0.222000
      3 C3          23.9020    29.2780    27.6690 ca         1 VUO       0.134100
      4 C6          24.0250    27.6720    29.3360 c          1 VUO       0.670700
      5 S           24.9390    29.0830    30.0760 ss         1 VUO      -0.024600
      6 O1          23.5840    28.0180    28.0820 os         1 VUO      -0.306200
      7 C4          23.5460    29.8200    26.4300 ca         1 VUO      -0.130000
      8 C5          23.9440    31.1370    26.1370 ca         1 VUO       0.167100
      9 O           23.6110    31.6890    24.9370 oh         1 VUO      -0.527100
     10 C           24.6830    31.8870    27.0780 ca         1 VUO      -0.213000
     11 H1          25.6020    31.8950    29.0540 ha         1 VUO       0.132000
     12 H2          22.9780    29.2360    25.7120 ha         1 VUO       0.157000
     13 H3          23.9670    32.6030    24.9080 ho         1 VUO       0.471000
     14 H4          24.9890    32.9050    26.8510 ha         1 VUO       0.123000
     15 O2          23.8310    26.5850    29.8640 o          1 VUO      -0.431000
@<TRIPOS>BOND
     1     1     2 ar  
     2     1    10 ar  
     3     1    11 1   
     4     2     3 ar  
     5     2     5 1   
     6     3     6 1   
     7     3     7 ar  
     8     4     5 1   
     9     4     6 1   
    10     4    15 2   
    11     7     8 ar  
    12     7    12 1   
    13     8     9 1   
    14     8    10 ar  
    15     9    13 1   
    16    10    14 1   
@<TRIPOS>SUBSTRUCTURE
     1 VUO         1 TEMP              0 ****  ****    0 ROOT
