@<TRIPOS>MOLECULE
VUO
   15    16     1     0     0
SMALL
abcg2


@<TRIPOS>ATOM
      1 C1          25.0360    31.3280    28.3330 ca         1 VUO      -0.002000
      2 C2          24.6430    30.0290    28.6180 ca         1 VUO      -0.222000
      3 C3          23.9150    29.3080    27.6770 ca         1 VUO       0.134100
      4 C6          24.0270    27.6990    29.3130 c          1 VUO       0.670700
      5 S           24.9150    29.0490    30.0490 ss         1 VUO      -0.024600
      6 O1          23.5770    28.0310    28.0640 os         1 VUO      -0.306200
      7 C4          23.5580    29.8280    26.4520 ca         1 VUO      -0.130000
      8 C5          23.9590    31.1350    26.1720 ca         1 VUO       0.167100
      9 O           23.6040    31.6390    24.9590 oh         1 VUO      -0.527100
     10 C           24.6910    31.8780    27.1040 ca         1 VUO      -0.213000
     11 H1          25.6030    31.9060    29.0500 ha         1 VUO       0.132000
     12 H2          22.9920    29.2500    25.7350 ha         1 VUO       0.157000
     13 H3          23.9270    32.5460    24.8650 ho         1 VUO       0.471000
     14 H4          24.9900    32.8900    26.8630 ha         1 VUO       0.123000
     15 O2          23.8200    26.6230    29.7980 o          1 VUO      -0.431000
@<TRIPOS>BOND
     1     1     2 ar  
     2     1    10 ar  
     3     1    11 1   
     4     2     3 ar  
     5     2     5 1   
     6     3     6 1   
     7     3     7 ar  
     8     4     5 1   
     9     4     6 1   
    10     4    15 2   
    11     7     8 ar  
    12     7    12 1   
    13     8     9 1   
    14     8    10 ar  
    15     9    13 1   
    16    10    14 1   
@<TRIPOS>SUBSTRUCTURE
     1 VUO         1 TEMP              0 ****  ****    0 ROOT
