@<TRIPOS>MOLECULE
VUP
   30    32     1     0     0
SMALL
bcc


@<TRIPOS>ATOM
      1 C           -3.8000    -0.0990    -0.1070 ca         1 VUP       0.432600
      2 C1          -2.7730     0.8240    -0.2090 ca         1 VUP      -0.246300
      3 C2          -1.4820     0.3140    -0.1270 ca         1 VUP      -0.046200
      4 N2          -0.2460     0.8870    -0.1930 na         1 VUP      -0.118300
      5 C6           0.0080     2.3140    -0.3300 c3         1 VUP       0.050300
      6 C7           0.2180     2.9980     1.0080 c3         1 VUP      -0.112100
      7 C5           0.6480    -0.1370    -0.0340 cc         1 VUP       0.367800
      8 N1           0.0820    -1.3070     0.1070 nd         1 VUP      -0.572100
      9 C3          -1.2600    -1.0550     0.0530 ca         1 VUP      -0.059900
     10 C4          -2.3660    -1.8970     0.1420 ca         1 VUP       0.480200
     11 N           -3.5920    -1.4210     0.0630 nb         1 VUP      -0.690000
     12 C8           2.0890    -0.0070    -0.0320 cc         1 VUP       0.190700
     13 C9           3.0380    -1.0830     0.0970 cc         1 VUP       0.516900
     14 N5           2.7750    -2.3850     0.3010 nv         1 VUP      -0.931500
     15 N4           4.2280    -0.5590     0.0300 nd         1 VUP      -0.440300
     16 O            4.0390     0.7790    -0.1230 os         1 VUP       0.114600
     17 C10         -5.2320     0.3340    -0.1840 c3         1 VUP      -0.143400
     18 N3           2.7540     1.0960    -0.1580 nd         1 VUP      -0.320300
     19 H51N         3.5070    -3.0490     0.1110 hn         1 VUP       0.447800
     20 H52N         1.8310    -2.6880     0.1200 hn         1 VUP       0.447800
     21 HA          -2.2460    -2.9670     0.2770 h4         1 VUP       0.034100
     22 H61C         0.8660     2.4540    -0.9820 h1         1 VUP       0.069700
     23 H62C        -0.8500     2.7410    -0.8490 h1         1 VUP       0.069700
     24 H71C         0.3820     4.0640     0.8480 hc         1 VUP       0.052367
     25 H72C        -0.6520     2.8830     1.6530 hc         1 VUP       0.052367
     26 H73C         1.0900     2.6020     1.5280 hc         1 VUP       0.052367
     27 H1          -2.9790     1.8770    -0.3450 ha         1 VUP       0.147000
     28 H101        -5.7360    -0.1450    -1.0250 hc         1 VUP       0.051700
     29 H102        -5.7730     0.0470     0.7190 hc         1 VUP       0.051700
     30 H103        -5.3220     1.4120    -0.3050 hc         1 VUP       0.051700
@<TRIPOS>BOND
     1     1     2 ar  
     2     1    11 ar  
     3     1    17 1   
     4     2     3 ar  
     5     2    27 1   
     6     3     4 1   
     7     3     9 ar  
     8     4     5 1   
     9     4     7 1   
    10     5     6 1   
    11     5    22 1   
    12     5    23 1   
    13     6    24 1   
    14     6    25 1   
    15     6    26 1   
    16     7     8 2   
    17     7    12 1   
    18     8     9 1   
    19     9    10 ar  
    20    10    11 ar  
    21    10    21 1   
    22    12    13 1   
    23    12    18 2   
    24    13    14 1   
    25    13    15 2   
    26    14    19 1   
    27    14    20 1   
    28    15    16 1   
    29    16    18 1   
    30    17    28 1   
    31    17    29 1   
    32    17    30 1   
@<TRIPOS>SUBSTRUCTURE
     1 VUP         1 TEMP              0 ****  ****    0 ROOT
