@<TRIPOS>MOLECULE
VUP
   30    32     1     0     0
SMALL
No Charge or Current Charge


@<TRIPOS>ATOM
      1 C           -3.8270    -0.0940    -0.1030 ca         1 VUP       0.367300
      2 C1          -2.7400     0.8050    -0.1790 ca         1 VUP      -0.163000
      3 C2          -1.4510     0.2550    -0.1270 ca         1 VUP      -0.046200
      4 N2          -0.2120     0.8280    -0.1720 na         1 VUP      -0.147600
      5 C6          -0.0280     2.2870    -0.3390 c3         1 VUP       0.079600
      6 C7           0.1040     3.0300     1.0040 c3         1 VUP      -0.112100
      7 C5           0.7320    -0.2190    -0.0430 cc         1 VUP       0.367800
      8 N1           0.0890    -1.4110     0.0540 nd         1 VUP      -0.572100
      9 C3          -1.2690    -1.0870     0.0030 ca         1 VUP       0.005400
     10 C4          -2.4000    -1.9330     0.0750 ca         1 VUP       0.414900
     11 N           -3.6690    -1.4390     0.0220 nb         1 VUP      -0.690000
     12 C8           2.1700     0.0060    -0.0230 cc         1 VUP       0.190700
     13 C9           3.1020    -1.0540     0.1130 cc         1 VUP       0.516900
     14 N5           2.8320    -2.3800     0.2590 nv         1 VUP      -1.041900
     15 N4           4.3390    -0.6610     0.0950 nd         1 VUP      -0.440300
     16 O            4.1920     0.7550    -0.0550 os         1 VUP       0.114600
     17 C10         -5.2580     0.4060    -0.1480 c3         1 VUP      -0.143400
     18 N3           2.8140     1.1530    -0.1250 nd         1 VUP      -0.320300
     19 H51N         3.5720    -3.0400     0.0410 hn         1 VUP       0.503000
     20 H52N         1.8700    -2.6810     0.0990 hn         1 VUP       0.503000
     21 HA          -2.2910    -3.0120     0.1800 h4         1 VUP       0.034100
     22 H61C         0.8520     2.4810    -0.9630 h1         1 VUP       0.069700
     23 H62C        -0.8850     2.6940    -0.8880 h1         1 VUP       0.069700
     24 H71C         0.2330     4.1050     0.8330 hc         1 VUP       0.052367
     25 H72C        -0.7950     2.8840     1.6150 hc         1 VUP       0.052367
     26 H73C         0.9690     2.6650     1.5700 hc         1 VUP       0.052367
     27 H1          -2.9090     1.8740    -0.2700 ha         1 VUP       0.129000
     28 H101        -5.8950    -0.2600    -0.7410 hc         1 VUP       0.051700
     29 H102        -5.6790     0.4670     0.8620 hc         1 VUP       0.051700
     30 H103        -5.3170     1.4040    -0.5970 hc         1 VUP       0.051700
@<TRIPOS>BOND
     1     1     2 ar  
     2     1    11 ar  
     3     1    17 1   
     4     2     3 ar  
     5     2    27 1   
     6     3     4 1   
     7     3     9 ar  
     8     4     5 1   
     9     4     7 1   
    10     5     6 1   
    11     5    22 1   
    12     5    23 1   
    13     6    24 1   
    14     6    25 1   
    15     6    26 1   
    16     7     8 2   
    17     7    12 1   
    18     8     9 1   
    19     9    10 ar  
    20    10    11 ar  
    21    10    21 1   
    22    12    13 1   
    23    12    18 2   
    24    13    14 1   
    25    13    15 2   
    26    14    19 1   
    27    14    20 1   
    28    15    16 1   
    29    16    18 1   
    30    17    28 1   
    31    17    29 1   
    32    17    30 1   
@<TRIPOS>SUBSTRUCTURE
     1 VUP         1 TEMP              0 ****  ****    0 ROOT
