@<TRIPOS>MOLECULE
VUR
   27    26     1     0     0
SMALL
abcg2


@<TRIPOS>ATOM
      1 C           -4.4760    -0.4220    -0.0550 c          1 VUR       0.692000
      2 N           -3.3190     1.8370     0.0310 n8         1 VUR      -1.004200
      3 C1           2.9760    -0.0750     0.0950 c2         1 VUR       0.617200
      4 C2           4.0830     0.9240    -0.2030 c3         1 VUR      -0.034700
      5 S3           5.7470     0.2280    -0.3120 sh         1 VUR      -0.439800
      6 CA          -3.2460     0.4510    -0.4060 c3         1 VUR       0.013500
      7 CB          -1.9840    -0.2080     0.1580 c3         1 VUR      -0.048400
      8 CD           0.5340    -0.2310     0.2870 c3         1 VUR       0.217800
      9 NE           1.7430     0.4490    -0.1180 nu         1 VUR      -0.905400
     10 CG          -0.6920     0.4560    -0.2950 c3         1 VUR      -0.089400
     11 NH           3.1270    -1.2730     0.5060 n2         1 VUR      -0.842100
     12 OA1         -4.5530    -1.5210    -0.6430 o          1 VUR      -0.733500
     13 OA2         -5.2760     0.0200     0.7940 o          1 VUR      -0.733500
     14 HN          -4.0900     2.2880    -0.4470 hn         1 VUR       0.381500
     15 HNA         -3.5970     1.8390     1.0060 hn         1 VUR       0.381500
     16 H2           3.8560     1.4770    -1.1150 h1         1 VUR       0.081200
     17 H2A          4.1230     1.6550     0.6070 h1         1 VUR       0.081200
     18 HS3          5.5990    -0.3980    -1.4850 hs         1 VUR       0.216800
     19 HA          -3.1500     0.4560    -1.4990 h1         1 VUR       0.036700
     20 HB          -2.0360    -0.1980     1.2540 hc         1 VUR       0.041700
     21 HBA         -1.9760    -1.2600    -0.1370 hc         1 VUR       0.041700
     22 HD           0.5850    -1.2650    -0.0580 h1         1 VUR       0.047200
     23 HDA          0.4530    -0.2740     1.3810 h1         1 VUR       0.047200
     24 HNE          1.6770     1.4470    -0.2340 hn         1 VUR       0.473000
     25 HG          -0.6330     0.4350    -1.3880 hc         1 VUR       0.039200
     26 HGA         -0.7030     1.5090    -0.0040 hc         1 VUR       0.039200
     27 HNH          4.1170    -1.4920     0.5610 hn         1 VUR       0.385400
@<TRIPOS>BOND
     1     1     6 1   
     2     1    12 1   
     3     1    13 1   
     4     2     6 1   
     5     2    14 1   
     6     2    15 1   
     7     3     4 1   
     8     3     9 1   
     9     3    11 2   
    10     4     5 1   
    11     4    16 1   
    12     4    17 1   
    13     5    18 1   
    14     6     7 1   
    15     6    19 1   
    16     7    10 1   
    17     7    20 1   
    18     7    21 1   
    19     8     9 1   
    20     8    10 1   
    21     8    22 1   
    22     8    23 1   
    23     9    24 1   
    24    10    25 1   
    25    10    26 1   
    26    11    27 1   
@<TRIPOS>SUBSTRUCTURE
     1 VUR         1 TEMP              0 ****  ****    0 ROOT
