@<TRIPOS>MOLECULE
VUR
   27    26     1     0     0
SMALL
No Charge or Current Charge


@<TRIPOS>ATOM
      1 C           -4.5420    -0.4930    -0.2270 c          1 VUR       0.692000
      2 N           -3.4610     1.8640     0.1800 n8         1 VUR      -1.004200
      3 C1           3.0670     0.0430     0.1810 c2         1 VUR       0.617200
      4 C2           4.1900     0.9220    -0.3530 c3         1 VUR      -0.034700
      5 S3           5.8880     0.1370    -0.4050 sh         1 VUR      -0.439800
      6 CA          -3.2960     0.4740    -0.3850 c3         1 VUR       0.013500
      7 CB          -2.0160    -0.2060     0.1750 c3         1 VUR      -0.048400
      8 CD           0.5550    -0.2530     0.3030 c3         1 VUR       0.217800
      9 NE           1.7850     0.4390    -0.1150 nu         1 VUR      -0.905400
     10 CG          -0.6900     0.4870    -0.2280 c3         1 VUR      -0.089400
     11 NH           3.2450    -1.0030     0.8840 n2         1 VUR      -0.842100
     12 OA1         -5.0170    -0.9960    -1.2360 o          1 VUR      -0.733500
     13 OA2         -5.0510    -0.6120     0.8810 o          1 VUR      -0.733500
     14 HN          -4.2820     2.3050    -0.2530 hn         1 VUR       0.381500
     15 HNA         -3.7370     1.7790     1.1660 hn         1 VUR       0.381500
     16 H2           3.9390     1.2420    -1.3720 h1         1 VUR       0.081200
     17 H2A          4.2520     1.8230     0.2690 h1         1 VUR       0.081200
     18 HS3          5.5800    -0.8410    -1.2950 hs         1 VUR       0.216800
     19 HA          -3.1450     0.5950    -1.4670 h1         1 VUR       0.036700
     20 HB          -2.0810    -0.2650     1.2690 hc         1 VUR       0.041700
     21 HBA         -1.9870    -1.2400    -0.1900 hc         1 VUR       0.041700
     22 HD           0.5530    -1.2820    -0.0810 h1         1 VUR       0.047200
     23 HDA          0.5040    -0.3010     1.4000 h1         1 VUR       0.047200
     24 HNE          1.6900     1.3020    -0.6460 hn         1 VUR       0.473000
     25 HG          -0.6350     0.5450    -1.3220 hc         1 VUR       0.039200
     26 HGA         -0.6830     1.5150     0.1540 hc         1 VUR       0.039200
     27 HNH          4.2620    -1.1220     0.9940 hn         1 VUR       0.385400
@<TRIPOS>BOND
     1     1     6 1   
     2     1    12 1   
     3     1    13 1   
     4     2     6 1   
     5     2    14 1   
     6     2    15 1   
     7     3     4 1   
     8     3     9 1   
     9     3    11 2   
    10     4     5 1   
    11     4    16 1   
    12     4    17 1   
    13     5    18 1   
    14     6     7 1   
    15     6    19 1   
    16     7    10 1   
    17     7    20 1   
    18     7    21 1   
    19     8     9 1   
    20     8    10 1   
    21     8    22 1   
    22     8    23 1   
    23     9    24 1   
    24    10    25 1   
    25    10    26 1   
    26    11    27 1   
@<TRIPOS>SUBSTRUCTURE
     1 VUR         1 TEMP              0 ****  ****    0 ROOT
