@<TRIPOS>MOLECULE
VUT
   29    30     1     0     0
SMALL
No Charge or Current Charge


@<TRIPOS>ATOM
      1 C1          77.1010   113.4890    91.9450 ca         1 VUT       0.225100
      2 C2          77.4360   112.7570    90.7960 ca         1 VUT      -0.159000
      3 C3          77.9140   113.4100    89.6500 ca         1 VUT      -0.024000
      4 C4          78.0550   114.8040    89.6570 ca         1 VUT       0.065000
      5 C5          77.7220   115.5460    90.8030 ca         1 VUT      -0.030000
      6 C6          77.2370   114.9000    91.9720 ca         1 VUT      -0.271600
      7 C7          76.8730   115.6890    93.2170 c          1 VUT       0.645700
      8 O8          76.4560   115.1140    94.2170 o          1 VUT      -0.614100
      9 N9          77.0410   117.0640    93.1440 ns         1 VUT      -0.127000
     10 C10         76.8160   118.1170    94.0760 ca         1 VUT       0.037000
     11 C11         77.1000   119.4370    93.6650 ca         1 VUT       0.040000
     12 C12         76.9010   120.5230    94.5350 ca         1 VUT      -0.007000
     13 C13         76.4110   120.3100    95.8430 ca         1 VUT      -0.198200
     14 C14         76.1260   118.9900    96.2600 ca         1 VUT      -0.010000
     15 C15         76.3270   117.9070    95.3850 ca         1 VUT      -0.145000
     16 N16         76.1980   121.4640    96.7720 no         1 VUT       0.680200
     17 O17         76.4630   122.6010    96.3610 o          1 VUT      -0.393500
     18 O18         75.7680   121.2300    97.9080 o          1 VUT      -0.393500
     19 Cl19        77.7140   119.7580    92.0410 cl         1 VUT      -0.184000
     20 Cl20        78.6540   115.6300    88.2230 cl         1 VUT      -0.195000
     21 O21         76.6430   112.8070    93.0290 oh         1 VUT      -0.537100
     22 H22         77.3250   111.6750    90.7950 ha         1 VUT       0.144000
     23 H23         78.1730   112.8390    88.7610 ha         1 VUT       0.138000
     24 H24         77.8500   116.6240    90.7560 ha         1 VUT       0.125000
     25 H25         77.3930   117.3890    92.2550 hn         1 VUT       0.175000
     26 H26         77.1310   121.5260    94.1810 ha         1 VUT       0.168000
     27 H27         75.7470   118.7920    97.2620 ha         1 VUT       0.160000
     28 H28         76.0940   116.9120    95.7500 ha         1 VUT       0.167000
     29 H1          76.4640   113.4920    93.7260 ho         1 VUT       0.518000
@<TRIPOS>BOND
     1     1     2 ar  
     2     1     6 ar  
     3     1    21 1   
     4     2     3 ar  
     5     2    22 1   
     6     3     4 ar  
     7     3    23 1   
     8     4     5 ar  
     9     4    20 1   
    10     5     6 ar  
    11     5    24 1   
    12     6     7 1   
    13     7     8 2   
    14     7     9 1   
    15     9    10 1   
    16     9    25 1   
    17    10    11 ar  
    18    10    15 ar  
    19    11    12 ar  
    20    11    19 1   
    21    12    13 ar  
    22    12    26 1   
    23    13    14 ar  
    24    13    16 1   
    25    14    15 ar  
    26    14    27 1   
    27    15    28 1   
    28    16    17 1   
    29    16    18 1   
    30    21    29 1   
@<TRIPOS>SUBSTRUCTURE
     1 VUT         1 TEMP              0 ****  ****    0 ROOT
