@<TRIPOS>MOLECULE
VUT
   29    30     1     0     0
SMALL
abcg2


@<TRIPOS>ATOM
      1 C1          76.9470   113.6130    91.9550 ca         1 VUT       0.225100
      2 C2          77.2490   112.8420    90.8280 ca         1 VUT      -0.159000
      3 C3          77.9000   113.3980    89.7460 ca         1 VUT      -0.024000
      4 C4          78.2630   114.7440    89.7810 ca         1 VUT       0.065000
      5 C5          77.9660   115.5280    90.8740 ca         1 VUT      -0.030000
      6 C6          77.2890   114.9850    91.9770 ca         1 VUT      -0.271600
      7 C7          76.9240   115.7860    93.1670 c          1 VUT       0.645700
      8 O8          76.5130   115.2460    94.2020 o          1 VUT      -0.614100
      9 N9          77.0430   117.1430    93.0560 ns         1 VUT      -0.127000
     10 C10         76.8190   118.1250    94.0080 ca         1 VUT       0.037000
     11 C11         76.8900   119.4750    93.5990 ca         1 VUT       0.040000
     12 C12         76.6910   120.5110    94.4850 ca         1 VUT      -0.007000
     13 C13         76.4090   120.2060    95.8100 ca         1 VUT      -0.198200
     14 C14         76.3350   118.8930    96.2520 ca         1 VUT      -0.010000
     15 C15         76.5400   117.8610    95.3570 ca         1 VUT      -0.145000
     16 N16         76.1900   121.2980    96.7500 no         1 VUT       0.680200
     17 O17         76.3020   122.4480    96.3410 o          1 VUT      -0.393500
     18 O18         75.9010   121.0160    97.9070 o          1 VUT      -0.393500
     19 CL19        77.2390   119.8610    91.9350 cl         1 VUT      -0.184000
     20 CL20        79.1150   115.4420    88.4220 cl         1 VUT      -0.195000
     21 O21         76.3300   113.0020    92.9800 oh         1 VUT      -0.537100
     22 H22         76.9680   111.7980    90.8260 ha         1 VUT       0.144000
     23 H23         78.1360   112.7930    88.8810 ha         1 VUT       0.138000
     24 H24         78.2920   116.5590    90.8650 ha         1 VUT       0.125000
     25 H25         77.2680   117.5000    92.1400 hn         1 VUT       0.175000
     26 H26         76.7480   121.5360    94.1540 ha         1 VUT       0.168000
     27 H27         76.1210   118.6790    97.2880 ha         1 VUT       0.160000
     28 H28         76.4860   116.8400    95.6920 ha         1 VUT       0.167000
     29 H1          76.2560   113.6690    93.7060 ho         1 VUT       0.518000
@<TRIPOS>BOND
     1     1     2 ar  
     2     1     6 ar  
     3     1    21 1   
     4     2     3 ar  
     5     2    22 1   
     6     3     4 ar  
     7     3    23 1   
     8     4     5 ar  
     9     4    20 1   
    10     5     6 ar  
    11     5    24 1   
    12     6     7 1   
    13     7     8 2   
    14     7     9 1   
    15     9    10 1   
    16     9    25 1   
    17    10    11 ar  
    18    10    15 ar  
    19    11    12 ar  
    20    11    19 1   
    21    12    13 ar  
    22    12    26 1   
    23    13    14 ar  
    24    13    16 1   
    25    14    15 ar  
    26    14    27 1   
    27    15    28 1   
    28    16    17 1   
    29    16    18 1   
    30    21    29 1   
@<TRIPOS>SUBSTRUCTURE
     1 VUT         1 TEMP              0 ****  ****    0 ROOT
