@<TRIPOS>MOLECULE
VUU
   29    30     1     0     0
SMALL
abcg2


@<TRIPOS>ATOM
      1 N1          30.9230    13.7650    43.1880 nu         1 VUU      -0.926400
      2 C7          29.9760    12.9110    42.5290 cx         1 VUU       0.129500
      3 C8          29.8520    11.5060    43.0320 cx         1 VUU      -0.127900
      4 N2          31.7940    15.9620    43.3760 n2         1 VUU      -0.902100
      5 C9          28.7340    12.4830    43.2720 cx         1 VUU      -0.127900
      6 C1          30.0200    15.3260    39.5560 cc         1 VUU      -0.143000
      7 C5          29.2570    16.9780    42.6250 c3         1 VUU       0.232800
      8 C6          30.8070    15.1470    43.1870 c2         1 VUU       0.813100
      9 C4          29.7010    17.2900    41.1810 c3         1 VUU      -0.048100
     10 C3          27.9270    14.6600    38.8070 cd         1 VUU      -0.232000
     11 C2          29.2520    16.2560    40.1990 cd         1 VUU      -0.189300
     12 N           29.5280    15.6140    43.0390 nu         1 VUU      -0.893400
     13 S           27.5750    16.0060    39.8280 ss         1 VUU       0.155000
     14 C           29.2680    14.4170    38.7570 cc         1 VUU      -0.134000
     15 H1          31.8790    13.4440    43.1540 hn         1 VUU       0.472000
     16 H2          29.8710    13.0590    41.4570 h1         1 VUU       0.074700
     17 H3          29.7070    10.7240    42.2990 hc         1 VUU       0.079700
     18 H4          30.4670    11.2340    43.8790 hc         1 VUU       0.079700
     19 H5          32.6620    15.4430    43.4800 hn         1 VUU       0.372400
     20 H6          27.8220    12.3760    42.7010 hc         1 VUU       0.079700
     21 H7          28.6110    12.8610    44.2770 hc         1 VUU       0.079700
     22 H9          29.7500    17.6710    43.3060 h1         1 VUU       0.061700
     23 H10         28.1810    17.1280    42.7200 h1         1 VUU       0.061700
     24 H11         30.7900    17.3310    41.1460 hc         1 VUU       0.068200
     25 H12         29.3260    18.2820    40.9160 hc         1 VUU       0.068200
     26 H13         27.1290    14.1400    38.3020 h4         1 VUU       0.150000
     27 H14         28.8530    14.9340    42.7330 hn         1 VUU       0.477000
     28 H15         29.7060    13.6180    38.1750 ha         1 VUU       0.133000
     29 H8          31.0960    15.2890    39.6640 ha         1 VUU       0.136000
@<TRIPOS>BOND
     1     1     2 1   
     2     1     8 1   
     3     1    15 1   
     4     2     3 1   
     5     2     5 1   
     6     2    16 1   
     7     3     5 1   
     8     3    17 1   
     9     3    18 1   
    10     4     8 2   
    11     4    19 1   
    12     5    20 1   
    13     5    21 1   
    14     6    11 2   
    15     6    14 1   
    16     6    29 1   
    17     7     9 1   
    18     7    12 1   
    19     7    22 1   
    20     7    23 1   
    21     8    12 1   
    22     9    11 1   
    23     9    24 1   
    24     9    25 1   
    25    10    13 1   
    26    10    14 2   
    27    10    26 1   
    28    11    13 1   
    29    12    27 1   
    30    14    28 1   
@<TRIPOS>SUBSTRUCTURE
     1 VUU         1 TEMP              0 ****  ****    0 ROOT
