@<TRIPOS>MOLECULE
VUU
   29    30     1     0     0
SMALL
No Charge or Current Charge


@<TRIPOS>ATOM
      1 N1          30.8530    13.9970    43.4560 nu         1 VUU      -0.926400
      2 C7          30.4390    13.1510    42.3690 cx         1 VUU       0.129500
      3 C8          30.1120    11.7160    42.6950 cx         1 VUU      -0.127900
      4 N2          31.6970    15.9010    44.2560 n2         1 VUU      -0.902100
      5 C9          29.0050    12.6820    42.3540 cx         1 VUU      -0.127900
      6 C1          29.6280    15.0180    39.4860 cc         1 VUU      -0.143000
      7 C5          29.4830    17.1050    42.5740 c3         1 VUU       0.232800
      8 C6          30.9140    15.3290    43.4680 c2         1 VUU       0.813100
      9 C4          29.8340    17.0530    41.0680 c3         1 VUU      -0.048100
     10 C3          27.3720    14.4770    39.2420 cd         1 VUU      -0.232000
     11 C2          29.0910    15.9860    40.2940 cd         1 VUU      -0.189300
     12 N           29.7040    15.8080    43.2250 nu         1 VUU      -0.893400
     13 S           27.3180    15.8740    40.3330 ss         1 VUU       0.155000
     14 C           28.6610    14.1680    38.8950 cc         1 VUU      -0.134000
     15 H1          31.2620    13.5830    44.2850 hn         1 VUU       0.472000
     16 H2          30.9250    13.3510    41.4120 h1         1 VUU       0.074700
     17 H3          30.3720    10.9620    41.9560 hc         1 VUU       0.079700
     18 H4          30.1980    11.3880    43.7280 hc         1 VUU       0.079700
     19 H5          32.4350    15.2290    44.4850 hn         1 VUU       0.372400
     20 H6          28.5210    12.5750    41.3870 hc         1 VUU       0.079700
     21 H7          28.3480    12.9990    43.1600 hc         1 VUU       0.079700
     22 H9          30.0830    17.8870    43.0610 h1         1 VUU       0.061700
     23 H10         28.4280    17.3940    42.6800 h1         1 VUU       0.061700
     24 H11         30.9160    16.9030    40.9660 hc         1 VUU       0.068200
     25 H12         29.6240    18.0360    40.6310 hc         1 VUU       0.068200
     26 H13         26.4560    13.9890    38.9320 h4         1 VUU       0.150000
     27 H14         29.1590    15.0460    42.8510 hn         1 VUU       0.477000
     28 H15         28.9340    13.3510    38.2330 ha         1 VUU       0.133000
     29 H8          30.6920    14.8970    39.3040 ha         1 VUU       0.136000
@<TRIPOS>BOND
     1     1     2 1   
     2     1     8 1   
     3     1    15 1   
     4     2     3 1   
     5     2     5 1   
     6     2    16 1   
     7     3     5 1   
     8     3    17 1   
     9     3    18 1   
    10     4     8 2   
    11     4    19 1   
    12     5    20 1   
    13     5    21 1   
    14     6    11 2   
    15     6    14 1   
    16     6    29 1   
    17     7     9 1   
    18     7    12 1   
    19     7    22 1   
    20     7    23 1   
    21     8    12 1   
    22     9    11 1   
    23     9    24 1   
    24     9    25 1   
    25    10    13 1   
    26    10    14 2   
    27    10    26 1   
    28    11    13 1   
    29    12    27 1   
    30    14    28 1   
@<TRIPOS>SUBSTRUCTURE
     1 VUU         1 TEMP              0 ****  ****    0 ROOT
