@<TRIPOS>MOLECULE
VV0
   30    30     1     0     0
SMALL
abcg2


@<TRIPOS>ATOM
      1 N1          25.5960    15.6790   -12.6160 ns         1 VV0      -0.505900
      2 C7          25.8300    17.0080   -12.5470 c          1 VV0       0.617700
      3 C8          24.4510    15.0910   -13.3060 c3         1 VV0       0.110700
      4 C9          24.7550    14.8790   -14.7900 c3         1 VV0      -0.107100
      5 C1          28.7280    19.1850   -11.4730 ca         1 VV0      -0.155300
      6 C5          28.8830    17.0770   -10.2790 ca         1 VV0      -0.196000
      7 C6          29.3980    18.3530   -10.5470 ca         1 VV0       0.321000
      8 C4          27.7410    16.6220   -10.9130 ca         1 VV0      -0.044000
      9 C3          27.0680    17.4290   -11.8340 ca         1 VV0      -0.197600
     10 C2          27.5810    18.7060   -12.0860 ca         1 VV0      -0.014000
     11 O           25.0570    17.8370   -13.0470 o          1 VV0      -0.619100
     12 C10         24.0590    13.7920   -12.6100 c3         1 VV0      -0.107100
     13 C           29.2560    20.5580   -11.7760 c3         1 VV0      -0.039800
     14 H1          26.3220    15.0480   -12.3180 hn         1 VV0       0.306500
     15 H2          23.6360    15.8090   -13.2140 h1         1 VV0       0.079700
     16 H3          23.8790    14.4790   -15.3050 hc         1 VV0       0.040867
     17 H4          25.0350    15.8210   -15.2630 hc         1 VV0       0.040867
     18 H5          25.5780    14.1710   -14.9130 hc         1 VV0       0.040867
     19 H6          29.3910    16.4460    -9.5590 ha         1 VV0       0.113000
     20 H7          27.3690    15.6370   -10.6590 ha         1 VV0       0.108000
     21 H8          27.0610    19.3380   -12.7940 ha         1 VV0       0.133000
     22 H9          23.8030    13.9710   -11.5650 hc         1 VV0       0.040867
     23 H10         23.1980    13.3440   -13.1070 hc         1 VV0       0.040867
     24 H11         24.8820    13.0720   -12.6470 hc         1 VV0       0.040867
     25 H12         31.0830    18.1040    -9.4320 hn         1 VV0       0.457500
     26 H13         31.0500    19.5410   -10.3060 hn         1 VV0       0.457500
     27 H14         29.3170    21.1710   -10.8720 hc         1 VV0       0.041033
     28 H15         30.2660    20.5170   -12.1990 hc         1 VV0       0.041033
     29 H16         28.6140    21.0690   -12.4930 hc         1 VV0       0.041033
     30 N           30.5110    18.8090    -9.8700 nv         1 VV0      -1.085000
@<TRIPOS>BOND
     1     1     2 1   
     2     1     3 1   
     3     1    14 1   
     4     2     9 1   
     5     2    11 2   
     6     3     4 1   
     7     3    12 1   
     8     3    15 1   
     9     4    16 1   
    10     4    17 1   
    11     4    18 1   
    12     5     7 ar  
    13     5    10 ar  
    14     5    13 1   
    15     6     7 ar  
    16     6     8 ar  
    17     6    19 1   
    18     7    30 1   
    19     8     9 ar  
    20     8    20 1   
    21     9    10 ar  
    22    10    21 1   
    23    12    22 1   
    24    12    23 1   
    25    12    24 1   
    26    13    27 1   
    27    13    28 1   
    28    13    29 1   
    29    25    30 1   
    30    26    30 1   
@<TRIPOS>SUBSTRUCTURE
     1 VV0         1 TEMP              0 ****  ****    0 ROOT
