@<TRIPOS>MOLECULE
VV0
   30    30     1     0     0
SMALL
No Charge or Current Charge


@<TRIPOS>ATOM
      1 N1          25.5610    15.6970   -12.6520 ns         1 VV0      -0.505900
      2 C7          25.9330    17.0190   -12.7780 c          1 VV0       0.617700
      3 C8          24.4160    15.0790   -13.3220 c3         1 VV0       0.110700
      4 C9          24.7900    14.6460   -14.7530 c3         1 VV0      -0.107100
      5 C1          28.7390    19.2420   -11.4050 ca         1 VV0      -0.155300
      6 C5          29.0420    16.9990   -10.5130 ca         1 VV0      -0.196000
      7 C6          29.4620    18.3310   -10.6070 ca         1 VV0       0.321000
      8 C4          27.9050    16.5550   -11.2060 ca         1 VV0      -0.044000
      9 C3          27.1650    17.4510   -12.0120 ca         1 VV0      -0.197600
     10 C2          27.5970    18.7940   -12.1000 ca         1 VV0      -0.014000
     11 O           25.2930    17.7960   -13.4730 o          1 VV0      -0.619100
     12 C10         23.8800    13.9070   -12.4800 c3         1 VV0      -0.107100
     13 C           29.1660    20.7050   -11.5330 c3         1 VV0      -0.039800
     14 H1          26.1380    15.1170   -12.0590 hn         1 VV0       0.306500
     15 H2          23.6140    15.8280   -13.3930 h1         1 VV0       0.079700
     16 H3          23.9230    14.2070   -15.2620 hc         1 VV0       0.040867
     17 H4          25.1290    15.5060   -15.3430 hc         1 VV0       0.040867
     18 H5          25.5940    13.9000   -14.7380 hc         1 VV0       0.040867
     19 H6          29.5980    16.2970    -9.8980 ha         1 VV0       0.113000
     20 H7          27.6160    15.5120   -11.1040 ha         1 VV0       0.108000
     21 H8          27.0410    19.4990   -12.7160 ha         1 VV0       0.133000
     22 H9          23.5940    14.2510   -11.4780 hc         1 VV0       0.040867
     23 H10         22.9940    13.4660   -12.9530 hc         1 VV0       0.040867
     24 H11         24.6390    13.1220   -12.3720 hc         1 VV0       0.040867
     25 H12         31.1750    18.0170    -9.4850 hn         1 VV0       0.457500
     26 H13         30.9840    19.6360   -10.0950 hn         1 VV0       0.457500
     27 H14         29.1840    21.1990   -10.5530 hc         1 VV0       0.041033
     28 H15         30.1670    20.7880   -11.9720 hc         1 VV0       0.041033
     29 H16         28.4820    21.2760   -12.1720 hc         1 VV0       0.041033
     30 N           30.5780    18.7210    -9.9150 nv         1 VV0      -1.085000
@<TRIPOS>BOND
     1     1     2 1   
     2     1     3 1   
     3     1    14 1   
     4     2     9 1   
     5     2    11 2   
     6     3     4 1   
     7     3    12 1   
     8     3    15 1   
     9     4    16 1   
    10     4    17 1   
    11     4    18 1   
    12     5     7 ar  
    13     5    10 ar  
    14     5    13 1   
    15     6     7 ar  
    16     6     8 ar  
    17     6    19 1   
    18     7    30 1   
    19     8     9 ar  
    20     8    20 1   
    21     9    10 ar  
    22    10    21 1   
    23    12    22 1   
    24    12    23 1   
    25    12    24 1   
    26    13    27 1   
    27    13    28 1   
    28    13    29 1   
    29    25    30 1   
    30    26    30 1   
@<TRIPOS>SUBSTRUCTURE
     1 VV0         1 TEMP              0 ****  ****    0 ROOT
