@<TRIPOS>MOLECULE
VV3
   70    74     1     0     0
SMALL
No Charge or Current Charge


@<TRIPOS>ATOM
      1 N1         -13.2350     5.5830    28.3180 n          1 VV3      -0.407800
      2 N3         -10.6780     3.4570    21.8780 na         1 VV3      -0.618400
      3 C4         -11.1080     6.4310    29.3420 ca         1 VV3      -0.045300
      4 C5         -12.4940     6.7740    28.8070 c3         1 VV3       0.141300
      5 C6         -13.8110     4.6990    29.3270 c3         1 VV3       0.064000
      6 C7         -15.3230     4.6980    29.1630 c3         1 VV3       0.142600
      7 C8         -15.0790     3.3100    27.0820 ca         1 VV3       0.203100
      8 C10        -13.5840     3.5500    25.1720 ca         1 VV3      -0.010000
      9 C13        -11.1370     1.7300    23.1780 cc         1 VV3      -0.088000
     10 C15         -9.9280     4.4650    21.1010 c3         1 VV3       0.228100
     11 C17        -15.2010     1.7540    25.1980 ca         1 VV3      -0.033000
     12 C20        -16.5240     0.6800    28.2900 ca         1 VV3      -0.067000
     13 C21        -17.5390    -0.0620    28.9160 ca         1 VV3      -0.154000
     14 C22        -18.8250    -0.0810    28.3620 ca         1 VV3       0.171000
     15 C24        -18.0940     1.3880    26.5550 ca         1 VV3      -0.029300
     16 C26        -13.2630     5.2480    26.9510 c          1 VV3       0.580600
     17 C28         -9.5910     6.0840    31.2240 ca         1 VV3       0.171100
     18 C1          -7.8650     5.4340    26.6810 c3         1 VV3       0.147900
     19 C2          -8.7830     5.7880    28.9450 ca         1 VV3       0.171100
     20 C3         -10.0620     6.1200    28.4530 ca         1 VV3      -0.195500
     21 O2         -15.6630     3.6080    28.3050 os         1 VV3      -0.346100
     22 C9         -14.0090     4.0180    26.4420 ca         1 VV3      -0.226600
     23 C11        -14.1610     2.4270    24.5490 ca         1 VV3      -0.165300
     24 C12        -13.6910     1.9150    23.1830 c3         1 VV3       0.301100
     25 N2         -12.3360     2.3490    22.7850 na         1 VV3      -0.670400
     26 C14        -10.0950     2.4350    22.6030 cd         1 VV3      -0.088000
     27 C16        -12.0240     3.4100    21.9850 cc         1 VV3       0.809100
     28 N4         -12.8510     4.2230    21.4470 n2         1 VV3      -0.914100
     29 C18        -15.6710     2.1780    26.4560 cp         1 VV3      -0.089000
     30 C19        -16.7810     1.4120    27.1050 cp         1 VV3      -0.042000
     31 C23        -19.1040     0.6380    27.1910 ca         1 VV3      -0.154000
     32 C25        -18.4480     2.1700    25.2950 c3         1 VV3      -0.050800
     33 O3         -12.6980     5.9820    26.1490 o          1 VV3      -0.567000
     34 C27        -10.8620     6.4100    30.7270 ca         1 VV3      -0.195500
     35 O4          -9.4180     6.0810    32.5930 os         1 VV3      -0.351100
     36 C29         -8.1560     5.7630    33.2070 c3         1 VV3       0.147900
     37 C30         -8.5500     5.7720    30.3270 ca         1 VV3      -0.224000
     38 H5         -13.0820     7.2530    29.6010 h1         1 VV3       0.076200
     39 H6         -12.3970     7.5200    28.0080 h1         1 VV3       0.076200
     40 H8         -13.3980     3.6860    29.2340 h1         1 VV3       0.072200
     41 H7         -13.5630     5.0710    30.3300 h1         1 VV3       0.072200
     42 H9         -15.7970     4.5580    30.1430 h1         1 VV3       0.070700
     43 H10        -15.6700     5.6560    28.7530 h1         1 VV3       0.070700
     44 H11        -12.7730     4.0630    24.6600 ha         1 VV3       0.141000
     45 H14        -11.1020     0.8550    23.8260 h4         1 VV3       0.223000
     46 H17        -10.2350     4.4270    20.0470 h1         1 VV3       0.050033
     47 H18        -10.1320     5.4680    21.4970 h1         1 VV3       0.050033
     48 H16         -8.8500     4.2690    21.1640 h1         1 VV3       0.050033
     49 H21        -15.6530     0.8810    24.7300 ha         1 VV3       0.121000
     50 H22        -15.5250     0.6900    28.7200 ha         1 VV3       0.118000
     51 H23        -17.3290    -0.6200    29.8250 ha         1 VV3       0.133000
     52 H3          -6.9120     5.1530    26.2150 h1         1 VV3       0.044533
     53 H1          -8.6210     4.6980    26.3780 h1         1 VV3       0.044533
     54 H2          -8.1550     6.4180    26.2920 h1         1 VV3       0.044533
     55 H4         -10.2630     6.1370    27.3860 ha         1 VV3       0.127500
     56 H12        -13.7050     0.8160    23.1970 h1         1 VV3       0.061700
     57 H13        -14.4160     2.2260    22.4190 h1         1 VV3       0.061700
     58 H15         -9.0200     2.2680    22.6710 h4         1 VV3       0.225000
     59 H20        -13.7880     3.9260    21.7340 hn         1 VV3       0.383400
     60 H24        -20.1100     0.6110    26.7800 ha         1 VV3       0.132000
     61 H26        -17.9930     3.1680    25.3030 hc         1 VV3       0.048367
     62 H25        -18.0980     1.6480    24.3970 hc         1 VV3       0.048367
     63 H27        -19.5310     2.3100    25.1950 hc         1 VV3       0.048367
     64 H28        -11.6600     6.6450    31.4270 ha         1 VV3       0.127500
     65 H31         -8.2390     5.8200    34.2990 h1         1 VV3       0.044533
     66 H29         -7.8390     4.7450    32.9430 h1         1 VV3       0.044533
     67 H30         -7.3780     6.4680    32.8880 h1         1 VV3       0.044533
     68 H32         -7.5570     5.5140    30.6810 ha         1 VV3       0.133000
     69 F1         -19.8030    -0.7940    28.9620 f          1 VV3      -0.185000
     70 O1          -7.7290     5.4680    28.1130 os         1 VV3      -0.351100
@<TRIPOS>BOND
     1     1     4 1   
     2     1     5 1   
     3     1    16 1   
     4     2    10 1   
     5     2    26 1   
     6     2    27 1   
     7     3     4 1   
     8     3    20 ar  
     9     3    34 ar  
    10     4    38 1   
    11     4    39 1   
    12     5     6 1   
    13     5    40 1   
    14     5    41 1   
    15     6    21 1   
    16     6    42 1   
    17     6    43 1   
    18     7    21 1   
    19     7    22 ar  
    20     7    29 ar  
    21     8    22 ar  
    22     8    23 ar  
    23     8    44 1   
    24     9    25 1   
    25     9    26 2   
    26     9    45 1   
    27    10    46 1   
    28    10    47 1   
    29    10    48 1   
    30    11    23 ar  
    31    11    29 ar  
    32    11    49 1   
    33    12    13 ar  
    34    12    30 ar  
    35    12    50 1   
    36    13    14 ar  
    37    13    51 1   
    38    14    31 ar  
    39    14    69 1   
    40    15    30 ar  
    41    15    31 ar  
    42    15    32 1   
    43    16    22 1   
    44    16    33 2   
    45    17    34 ar  
    46    17    35 1   
    47    17    37 ar  
    48    18    52 1   
    49    18    53 1   
    50    18    54 1   
    51    18    70 1   
    52    19    20 ar  
    53    19    37 ar  
    54    19    70 1   
    55    20    55 1   
    56    23    24 1   
    57    24    25 1   
    58    24    56 1   
    59    24    57 1   
    60    25    27 1   
    61    26    58 1   
    62    27    28 2   
    63    28    59 1   
    64    29    30 1   
    65    31    60 1   
    66    32    61 1   
    67    32    62 1   
    68    32    63 1   
    69    34    64 1   
    70    35    36 1   
    71    36    65 1   
    72    36    66 1   
    73    36    67 1   
    74    37    68 1   
@<TRIPOS>SUBSTRUCTURE
     1 VV3         1 TEMP              0 ****  ****    0 ROOT
