@<TRIPOS>MOLECULE
VV3
   70    74     1     0     0
SMALL
abcg2


@<TRIPOS>ATOM
      1 N1         -13.3770     5.7490    28.4670 n          1 VV3      -0.407800
      2 N3         -10.7520     2.2270    21.9560 na         1 VV3      -0.618400
      3 C4         -11.3670     6.5960    29.6370 ca         1 VV3      -0.045300
      4 C5         -12.7580     6.8950    29.1250 c3         1 VV3       0.141300
      5 C6         -13.5700     4.5410    29.2520 c3         1 VV3       0.064000
      6 C7         -15.0480     4.2100    29.3570 c3         1 VV3       0.142600
      7 C8         -15.0740     3.5440    27.0070 ca         1 VV3       0.203100
      8 C10        -13.9610     4.5350    25.1110 ca         1 VV3      -0.010000
      9 C13        -12.6790     1.3860    22.6450 cc         1 VV3      -0.088000
     10 C15         -9.4670     2.2880    21.2880 c3         1 VV3       0.228100
     11 C17        -15.1710     2.5090    24.8170 ca         1 VV3      -0.033000
     12 C20        -15.6100     0.3240    27.3060 ca         1 VV3      -0.067000
     13 C21        -16.2650    -0.7870    27.8240 ca         1 VV3      -0.154000
     14 C22        -17.6440    -0.8110    27.7430 ca         1 VV3       0.171000
     15 C24        -17.7100     1.3110    26.6220 ca         1 VV3      -0.029300
     16 C26        -13.7050     5.8070    27.1580 c          1 VV3       0.580600
     17 C28         -9.6540     6.8750    31.3100 ca         1 VV3       0.171100
     18 C1          -8.6000     4.3880    27.3480 c3         1 VV3       0.147900
     19 C2          -9.2030     5.5940    29.3230 ca         1 VV3       0.171100
     20 C3         -10.4950     5.8180    28.8660 ca         1 VV3      -0.195500
     21 O2         -15.4780     3.3660    28.2870 os         1 VV3      -0.346100
     22 C9         -14.2910     4.5920    26.4770 ca         1 VV3      -0.226600
     23 C11        -14.3910     3.5270    24.2710 ca         1 VV3      -0.165300
     24 C12        -14.0120     3.5270    22.8110 c3         1 VV3       0.301100
     25 N2         -12.7940     2.7720    22.5430 na         1 VV3      -0.670400
     26 C14        -11.4310     1.0530    22.2690 cd         1 VV3      -0.088000
     27 C16        -11.6030     3.3120    22.0800 cc         1 VV3       0.809100
     28 N4         -11.2850     4.5270    21.7530 n2         1 VV3      -0.914100
     29 C18        -15.5450     2.5220    26.1480 cp         1 VV3      -0.089000
     30 C19        -16.3110     1.3740    26.7100 cp         1 VV3      -0.042000
     31 C23        -18.3720     0.1970    27.1410 ca         1 VV3      -0.154000
     32 C25        -18.5130     2.4350    26.0230 c3         1 VV3      -0.050800
     33 O3         -13.5240     6.8320    26.4900 o          1 VV3      -0.567000
     34 C27        -10.9580     7.1160    30.8510 ca         1 VV3      -0.195500
     35 O4          -9.3440     7.4130    32.5210 os         1 VV3      -0.351100
     36 C29         -7.9800     7.3840    32.9420 c3         1 VV3       0.147900
     37 C30         -8.7870     6.0810    30.5740 ca         1 VV3      -0.224000
     38 H5         -13.3970     7.2100    29.9530 h1         1 VV3       0.076200
     39 H6         -12.7170     7.6920    28.3860 h1         1 VV3       0.076200
     40 H8         -13.0430     3.6940    28.8090 h1         1 VV3       0.072200
     41 H7         -13.1540     4.7130    30.2410 h1         1 VV3       0.072200
     42 H9         -15.2640     3.6310    30.2540 h1         1 VV3       0.070700
     43 H10        -15.6370     5.1300    29.3610 h1         1 VV3       0.070700
     44 H11        -13.3700     5.3450    24.7120 ha         1 VV3       0.141000
     45 H14        -13.4420     0.7790    23.0980 h4         1 VV3       0.223000
     46 H17         -9.2430     3.3300    21.0780 h1         1 VV3       0.050033
     47 H18         -8.6840     1.8780    21.9270 h1         1 VV3       0.050033
     48 H16         -9.4960     1.7300    20.3490 h1         1 VV3       0.050033
     49 H21        -15.5600     1.7240    24.1780 ha         1 VV3       0.121000
     50 H22        -14.5300     0.3740    27.3580 ha         1 VV3       0.118000
     51 H23        -15.7170    -1.5890    28.2980 ha         1 VV3       0.133000
     52 H3          -7.7050     3.8940    26.9780 h1         1 VV3       0.044533
     53 H1          -9.4360     3.6830    27.3600 h1         1 VV3       0.044533
     54 H2          -8.8480     5.2310    26.6980 h1         1 VV3       0.044533
     55 H4         -10.8100     5.4680    27.8940 ha         1 VV3       0.127500
     56 H12        -14.8200     3.1030    22.2090 h1         1 VV3       0.061700
     57 H13        -13.8340     4.5500    22.4880 h1         1 VV3       0.061700
     58 H15        -10.9290     0.1010    22.2910 h4         1 VV3       0.225000
     59 H20        -12.0370     5.1740    21.9620 hn         1 VV3       0.383400
     60 H24        -19.4500     0.1170    27.0920 ha         1 VV3       0.132000
     61 H26        -18.7410     3.1860    26.7860 hc         1 VV3       0.048367
     62 H25        -17.9740     2.9380    25.2230 hc         1 VV3       0.048367
     63 H27        -19.4600     2.0680    25.6280 hc         1 VV3       0.048367
     64 H28        -11.6470     7.6690    31.4770 ha         1 VV3       0.127500
     65 H31         -7.9490     7.9360    33.8780 h1         1 VV3       0.044533
     66 H29         -7.6360     6.3590    33.1020 h1         1 VV3       0.044533
     67 H30         -7.3350     7.8690    32.2050 h1         1 VV3       0.044533
     68 H32         -7.7700     5.9020    30.8850 ha         1 VV3       0.133000
     69 F1         -18.3160    -1.8880    28.2330 f          1 VV3      -0.185000
     70 O1          -8.2850     4.8340    28.6670 os         1 VV3      -0.351100
@<TRIPOS>BOND
     1     1     4 1   
     2     1     5 1   
     3     1    16 1   
     4     2    10 1   
     5     2    26 1   
     6     2    27 1   
     7     3     4 1   
     8     3    20 ar  
     9     3    34 ar  
    10     4    38 1   
    11     4    39 1   
    12     5     6 1   
    13     5    40 1   
    14     5    41 1   
    15     6    21 1   
    16     6    42 1   
    17     6    43 1   
    18     7    21 1   
    19     7    22 ar  
    20     7    29 ar  
    21     8    22 ar  
    22     8    23 ar  
    23     8    44 1   
    24     9    25 1   
    25     9    26 2   
    26     9    45 1   
    27    10    46 1   
    28    10    47 1   
    29    10    48 1   
    30    11    23 ar  
    31    11    29 ar  
    32    11    49 1   
    33    12    13 ar  
    34    12    30 ar  
    35    12    50 1   
    36    13    14 ar  
    37    13    51 1   
    38    14    31 ar  
    39    14    69 1   
    40    15    30 ar  
    41    15    31 ar  
    42    15    32 1   
    43    16    22 1   
    44    16    33 2   
    45    17    34 ar  
    46    17    35 1   
    47    17    37 ar  
    48    18    52 1   
    49    18    53 1   
    50    18    54 1   
    51    18    70 1   
    52    19    20 ar  
    53    19    37 ar  
    54    19    70 1   
    55    20    55 1   
    56    23    24 1   
    57    24    25 1   
    58    24    56 1   
    59    24    57 1   
    60    25    27 1   
    61    26    58 1   
    62    27    28 2   
    63    28    59 1   
    64    29    30 1   
    65    31    60 1   
    66    32    61 1   
    67    32    62 1   
    68    32    63 1   
    69    34    64 1   
    70    35    36 1   
    71    36    65 1   
    72    36    66 1   
    73    36    67 1   
    74    37    68 1   
@<TRIPOS>SUBSTRUCTURE
     1 VV3         1 TEMP              0 ****  ****    0 ROOT
