@<TRIPOS>MOLECULE
VV5
   28    29     1     0     0
SMALL
abcg2


@<TRIPOS>ATOM
      1 N1          29.5100    17.5800    41.8130 ns         1 VV5      -0.500900
      2 C7          28.3060    18.1530    39.7110 c3         1 VV5      -0.027100
      3 C8          28.8570    17.0320    38.8880 cc         1 VV5      -0.195300
      4 C9          28.1700    16.0300    38.2570 cd         1 VV5      -0.122000
      5 C1          32.2010    15.2020    42.2010 ca         1 VV5      -0.023000
      6 C5          29.9930    16.3440    42.0500 c          1 VV5       0.615700
      7 C6          28.2120    17.8290    41.2130 c3         1 VV5       0.100000
      8 C4          33.9420    16.1470    43.5330 ca         1 VV5       0.348900
      9 C3          31.9340    17.2340    43.4300 ca         1 VV5       0.353900
     10 C2          31.3970    16.2790    42.5680 ca         1 VV5      -0.200600
     11 O           29.3480    15.3130    41.8600 o          1 VV5      -0.592100
     12 N           33.1770    17.1740    43.9120 nb         1 VV5      -0.669000
     13 C           33.4980    15.1390    42.6830 ca         1 VV5      -0.171000
     14 S           30.5640    16.8040    38.6870 ss         1 VV5       0.158000
     15 C11         30.3400    15.3670    37.7660 cc         1 VV5      -0.229000
     16 C10         29.0140    15.0780    37.6180 cd         1 VV5      -0.124000
     17 H1          30.1400    18.3640    41.8880 hn         1 VV5       0.311500
     18 H2          28.9100    19.0550    39.5850 hc         1 VV5       0.054200
     19 H3          27.3000    18.3880    39.3580 hc         1 VV5       0.054200
     20 H4          27.0900    15.9760    38.2570 ha         1 VV5       0.132000
     21 H5          31.8080    14.4390    41.5440 ha         1 VV5       0.141000
     22 H6          27.7450    18.6690    41.7300 h1         1 VV5       0.065700
     23 H7          27.6000    16.9440    41.3690 h1         1 VV5       0.065700
     24 H8          34.9520    16.1260    43.9280 h4         1 VV5       0.022100
     25 H9          31.3320    18.0710    43.7690 h4         1 VV5       0.019100
     26 H10         34.1580    14.3270    42.4110 ha         1 VV5       0.128000
     27 H11         31.1920    14.8280    37.3840 h4         1 VV5       0.148000
     28 H12         28.6490    14.2210    37.0690 ha         1 VV5       0.134000
@<TRIPOS>BOND
     1     1     6 1   
     2     1     7 1   
     3     1    17 1   
     4     2     3 1   
     5     2     7 1   
     6     2    18 1   
     7     2    19 1   
     8     3     4 2   
     9     3    14 1   
    10     4    16 1   
    11     4    20 1   
    12     5    10 ar  
    13     5    13 ar  
    14     5    21 1   
    15     6    10 1   
    16     6    11 2   
    17     7    22 1   
    18     7    23 1   
    19     8    12 ar  
    20     8    13 ar  
    21     8    24 1   
    22     9    10 ar  
    23     9    12 ar  
    24     9    25 1   
    25    13    26 1   
    26    14    15 1   
    27    15    16 2   
    28    15    27 1   
    29    16    28 1   
@<TRIPOS>SUBSTRUCTURE
     1 VV5         1 TEMP              0 ****  ****    0 ROOT
