@<TRIPOS>MOLECULE
VV5
   28    29     1     0     0
SMALL
No Charge or Current Charge


@<TRIPOS>ATOM
      1 N1          29.4480    17.4660    41.8650 ns         1 VV5      -0.500900
      2 C7          28.1850    18.1370    39.8100 c3         1 VV5      -0.027100
      3 C8          28.8180    17.1070    38.9080 cc         1 VV5      -0.195300
      4 C9          28.2030    16.0620    38.2660 cd         1 VV5      -0.122000
      5 C1          32.0790    14.9410    42.7410 ca         1 VV5      -0.023000
      6 C5          30.0120    16.2190    42.0440 c          1 VV5       0.615700
      7 C6          28.1170    17.7110    41.2920 c3         1 VV5       0.100000
      8 C4          34.0570    16.1690    43.4010 ca         1 VV5       0.348900
      9 C3          32.1690    17.3570    42.7660 ca         1 VV5       0.353900
     10 C2          31.4360    16.1780    42.5250 ca         1 VV5      -0.200600
     11 O           29.3810    15.1940    41.8240 o          1 VV5      -0.592100
     12 N           33.4530    17.3610    43.1950 nb         1 VV5      -0.669000
     13 C           33.4100    14.9440    43.1860 ca         1 VV5      -0.171000
     14 S           30.5420    17.1410    38.5370 ss         1 VV5       0.158000
     15 C11         30.3890    15.7140    37.5190 cc         1 VV5      -0.229000
     16 C10         29.0900    15.2750    37.4830 cd         1 VV5      -0.124000
     17 H1          30.0240    18.2690    42.0830 hn         1 VV5       0.311500
     18 H2          28.7360    19.0820    39.7370 hc         1 VV5       0.054200
     19 H3          27.1670    18.3500    39.4630 hc         1 VV5       0.054200
     20 H4          27.1410    15.8540    38.3500 ha         1 VV5       0.132000
     21 H5          31.5630    13.9970    42.5690 ha         1 VV5       0.141000
     22 H6          27.6310    18.5060    41.8730 h1         1 VV5       0.065700
     23 H7          27.4980    16.8090    41.3840 h1         1 VV5       0.065700
     24 H8          35.0900    16.2000    43.7460 h4         1 VV5       0.022100
     25 H9          31.7310    18.3410    42.6150 h4         1 VV5       0.019100
     26 H10         33.9390    14.0110    43.3650 ha         1 VV5       0.128000
     27 H11         31.2630    15.3100    37.0250 h4         1 VV5       0.148000
     28 H12         28.7700    14.4070    36.9120 ha         1 VV5       0.134000
@<TRIPOS>BOND
     1     1     6 1   
     2     1     7 1   
     3     1    17 1   
     4     2     3 1   
     5     2     7 1   
     6     2    18 1   
     7     2    19 1   
     8     3     4 2   
     9     3    14 1   
    10     4    16 1   
    11     4    20 1   
    12     5    10 ar  
    13     5    13 ar  
    14     5    21 1   
    15     6    10 1   
    16     6    11 2   
    17     7    22 1   
    18     7    23 1   
    19     8    12 ar  
    20     8    13 ar  
    21     8    24 1   
    22     9    10 ar  
    23     9    12 ar  
    24     9    25 1   
    25    13    26 1   
    26    14    15 1   
    27    15    16 2   
    28    15    27 1   
    29    16    28 1   
@<TRIPOS>SUBSTRUCTURE
     1 VV5         1 TEMP              0 ****  ****    0 ROOT
