@<TRIPOS>MOLECULE
VV8
   50    51     1     0     0
SMALL
No Charge or Current Charge


@<TRIPOS>ATOM
      1 C30         19.4070     4.6890    11.7320 c3         1 VV8      -0.071100
      2 C29         18.1420     5.1840    10.9890 c3         1 VV8      -0.291400
      3 S26         16.8310     3.9440    10.8470 sy         1 VV8       1.044500
      4 O27         15.6640     4.6540    10.3050 o          1 VV8      -0.510500
      5 O28         17.4020     2.8070    10.1160 o          1 VV8      -0.510500
      6 C10         16.4970     3.4830    12.5640 ca         1 VV8      -0.328500
      7 C11         17.1310     2.3490    13.1250 ca         1 VV8       0.245000
      8 F15         18.0010     1.6030    12.4060 f          1 VV8      -0.130000
      9 C12         16.9010     1.9690    14.4600 ca         1 VV8       0.125000
     10 F13         17.5230     0.8620    14.9320 f          1 VV8      -0.166000
     11 C7          16.0330     2.7100    15.2850 ca         1 VV8      -0.257500
     12 S1          15.7440     2.1890    16.9850 sy         1 VV8       1.171600
     13 O3          16.9450     1.5910    17.5640 o          1 VV8      -0.512500
     14 N4          14.7480     0.9100    16.8080 n8         1 VV8      -1.030100
     15 O2          14.9370     3.1470    17.7350 o          1 VV8      -0.512500
     16 C9          15.6410     4.2530    13.3850 ca         1 VV8       0.402000
     17 C8          15.4000     3.8490    14.7360 ca         1 VV8       0.188000
     18 F14         14.5320     4.5610    15.4920 f          1 VV8      -0.150000
     19 N16         15.0360     5.4140    12.8660 nu         1 VV8      -0.963200
     20 C18         14.9610     6.7490    13.4880 c3         1 VV8       0.234500
     21 C25         16.3850     7.2490    13.8500 c3         1 VV8      -0.091400
     22 C24         16.4560     8.2740    15.0140 c3         1 VV8      -0.066900
     23 C23         16.8030     9.7230    14.6060 c3         1 VV8      -0.070400
     24 C22         15.6230    10.6020    14.1370 c3         1 VV8      -0.073400
     25 C21         14.9070    10.1590    12.8420 c3         1 VV8      -0.070400
     26 C20         13.8140     9.0720    13.0180 c3         1 VV8      -0.066900
     27 C19         14.1800     7.6580    12.5110 c3         1 VV8      -0.091400
     28 H1          20.1730     5.4740    11.7410 hc         1 VV8       0.054367
     29 H2          19.1810     4.4320    12.7740 hc         1 VV8       0.054367
     30 H3          19.8340     3.8050    11.2410 hc         1 VV8       0.054367
     31 H4          18.3980     5.4850     9.9670 h1         1 VV8       0.100700
     32 H5          17.7110     6.0440    11.5100 h1         1 VV8       0.100700
     33 H6          14.0280     1.1510    17.4850 hn         1 VV8       0.499500
     34 H7          15.2820     0.2040    17.3110 hn         1 VV8       0.499500
     35 H8          14.9480     5.4120    11.8450 hn         1 VV8       0.513000
     36 H9          14.3720     6.6830    14.4130 h1         1 VV8       0.079700
     37 H10         16.9940     6.3920    14.1600 hc         1 VV8       0.045450
     38 H11         16.8760     7.6480    12.9560 hc         1 VV8       0.045450
     39 H12         15.5310     8.2610    15.6040 hc         1 VV8       0.046700
     40 H13         17.2430     7.9350    15.6990 hc         1 VV8       0.046700
     41 H14         17.5860     9.7160    13.8380 hc         1 VV8       0.037950
     42 H15         17.2480    10.2170    15.4790 hc         1 VV8       0.037950
     43 H16         16.0190    11.6120    13.9690 hc         1 VV8       0.038200
     44 H17         14.8930    10.7020    14.9500 hc         1 VV8       0.038200
     45 H18         15.6450     9.8520    12.0900 hc         1 VV8       0.037950
     46 H19         14.4170    11.0480    12.4260 hc         1 VV8       0.037950
     47 H20         12.9380     9.4000    12.4440 hc         1 VV8       0.046700
     48 H21         13.4770     9.0220    14.0610 hc         1 VV8       0.046700
     49 H22         13.2360     7.1500    12.2740 hc         1 VV8       0.045450
     50 H23         14.7230     7.7370    11.5610 hc         1 VV8       0.045450
@<TRIPOS>BOND
     1     1     2 1   
     2     1    28 1   
     3     1    29 1   
     4     1    30 1   
     5     2     3 1   
     6     2    31 1   
     7     2    32 1   
     8     3     4 2   
     9     3     5 2   
    10     3     6 1   
    11     6     7 ar  
    12     6    16 ar  
    13     7     8 1   
    14     7     9 ar  
    15     9    10 1   
    16     9    11 ar  
    17    11    12 1   
    18    11    17 ar  
    19    12    13 2   
    20    12    14 1   
    21    12    15 2   
    22    14    33 1   
    23    14    34 1   
    24    16    17 ar  
    25    16    19 1   
    26    17    18 1   
    27    19    20 1   
    28    19    35 1   
    29    20    21 1   
    30    20    27 1   
    31    20    36 1   
    32    21    22 1   
    33    21    37 1   
    34    21    38 1   
    35    22    23 1   
    36    22    39 1   
    37    22    40 1   
    38    23    24 1   
    39    23    41 1   
    40    23    42 1   
    41    24    25 1   
    42    24    43 1   
    43    24    44 1   
    44    25    26 1   
    45    25    45 1   
    46    25    46 1   
    47    26    27 1   
    48    26    47 1   
    49    26    48 1   
    50    27    49 1   
    51    27    50 1   
@<TRIPOS>SUBSTRUCTURE
     1 VV8         1 TEMP              0 ****  ****    0 ROOT
