@<TRIPOS>MOLECULE
VV8
   50    51     1     0     0
SMALL
abcg2


@<TRIPOS>ATOM
      1 C30         19.3240     4.3250    11.4400 c3         1 VV8      -0.071100
      2 C29         18.0760     4.9100    10.8120 c3         1 VV8      -0.291400
      3 S26         16.7210     3.7460    10.7220 sy         1 VV8       1.044500
      4 O27         15.5760     4.4230    10.1100 o          1 VV8      -0.510500
      5 O28         17.1730     2.5100    10.1040 o          1 VV8      -0.510500
      6 C10         16.3270     3.4500    12.4480 ca         1 VV8      -0.328500
      7 C11         16.8680     2.3390    13.0860 ca         1 VV8       0.245000
      8 F15         17.6760     1.4970    12.4560 f          1 VV8      -0.130000
      9 C12         16.6450     2.0870    14.4230 ca         1 VV8       0.125000
     10 F13         17.2460     1.0340    14.9710 f          1 VV8      -0.166000
     11 C7          15.8280     2.9350    15.1490 ca         1 VV8      -0.257500
     12 S1          15.4060     2.7410    16.8930 sy         1 VV8       1.171600
     13 O3          16.0530     3.8480    17.5670 o          1 VV8      -0.512500
     14 N4          16.0560     1.3770    17.4740 n8         1 VV8      -1.030100
     15 O2          13.9690     2.5720    16.9310 o          1 VV8      -0.512500
     16 C9          15.5210     4.3680    13.1690 ca         1 VV8       0.402000
     17 C8          15.2800     4.0280    14.5100 ca         1 VV8       0.188000
     18 F14         14.4680     4.8110    15.2260 f          1 VV8      -0.150000
     19 N16         15.0020     5.5030    12.6340 nu         1 VV8      -0.963200
     20 C18         14.8690     6.7920    13.3250 c3         1 VV8       0.234500
     21 C25         16.1310     7.1560    14.1170 c3         1 VV8      -0.091400
     22 C24         15.8770     8.0220    15.3640 c3         1 VV8      -0.066900
     23 C23         16.4820     9.4220    15.3120 c3         1 VV8      -0.070400
     24 C22         15.6930    10.4580    14.5210 c3         1 VV8      -0.073400
     25 C21         15.4100    10.1490    13.0490 c3         1 VV8      -0.070400
     26 C20         14.2090     9.2250    12.7620 c3         1 VV8      -0.066900
     27 C19         14.5150     7.8160    12.2530 c3         1 VV8      -0.091400
     28 H1          20.1140     5.0740    11.3990 hc         1 VV8       0.054367
     29 H2          19.1750     4.0690    12.4880 hc         1 VV8       0.054367
     30 H3          19.6720     3.4450    10.9030 hc         1 VV8       0.054367
     31 H4          18.2410     5.2090     9.7730 h1         1 VV8       0.100700
     32 H5          17.7010     5.7770    11.3580 h1         1 VV8       0.100700
     33 H6          17.0650     1.3640    17.5690 hn         1 VV8       0.499500
     34 H7          15.6680     0.5100    17.1190 hn         1 VV8       0.499500
     35 H8          15.0460     5.5640    11.6280 hn         1 VV8       0.513000
     36 H9          14.0190     6.7460    14.0110 h1         1 VV8       0.079700
     37 H10         16.6390     6.2440    14.4360 hc         1 VV8       0.045450
     38 H11         16.8430     7.6450    13.4440 hc         1 VV8       0.045450
     39 H12         14.8030     8.0980    15.5620 hc         1 VV8       0.046700
     40 H13         16.2910     7.5030    16.2310 hc         1 VV8       0.046700
     41 H14         17.5000     9.3560    14.9150 hc         1 VV8       0.037950
     42 H15         16.5870     9.7970    16.3340 hc         1 VV8       0.037950
     43 H16         16.2460    11.4010    14.5720 hc         1 VV8       0.038200
     44 H17         14.7410    10.6490    15.0280 hc         1 VV8       0.038200
     45 H18         16.3140     9.7620    12.5680 hc         1 VV8       0.037950
     46 H19         15.2140    11.1040    12.5570 hc         1 VV8       0.037950
     47 H20         13.5970     9.7020    11.9940 hc         1 VV8       0.046700
     48 H21         13.5640     9.1640    13.6430 hc         1 VV8       0.046700
     49 H22         13.6330     7.4460    11.7220 hc         1 VV8       0.045450
     50 H23         15.3250     7.8650    11.5150 hc         1 VV8       0.045450
@<TRIPOS>BOND
     1     1     2 1   
     2     1    28 1   
     3     1    29 1   
     4     1    30 1   
     5     2     3 1   
     6     2    31 1   
     7     2    32 1   
     8     3     4 2   
     9     3     5 2   
    10     3     6 1   
    11     6     7 ar  
    12     6    16 ar  
    13     7     8 1   
    14     7     9 ar  
    15     9    10 1   
    16     9    11 ar  
    17    11    12 1   
    18    11    17 ar  
    19    12    13 2   
    20    12    14 1   
    21    12    15 2   
    22    14    33 1   
    23    14    34 1   
    24    16    17 ar  
    25    16    19 1   
    26    17    18 1   
    27    19    20 1   
    28    19    35 1   
    29    20    21 1   
    30    20    27 1   
    31    20    36 1   
    32    21    22 1   
    33    21    37 1   
    34    21    38 1   
    35    22    23 1   
    36    22    39 1   
    37    22    40 1   
    38    23    24 1   
    39    23    41 1   
    40    23    42 1   
    41    24    25 1   
    42    24    43 1   
    43    24    44 1   
    44    25    26 1   
    45    25    45 1   
    46    25    46 1   
    47    26    27 1   
    48    26    47 1   
    49    26    48 1   
    50    27    49 1   
    51    27    50 1   
@<TRIPOS>SUBSTRUCTURE
     1 VV8         1 TEMP              0 ****  ****    0 ROOT
