@<TRIPOS>MOLECULE
VV9
   39    41     1     0     0
SMALL
abcg2


@<TRIPOS>ATOM
      1 C10        107.4490   107.8200   109.0670 ca         1 VV9      -0.304500
      2 C11        107.2520   109.1790   109.2770 ca         1 VV9      -0.006500
      3 C12        106.9930   109.6420   110.5560 ca         1 VV9      -0.124500
      4 C13        106.9310   108.7360   111.6050 ca         1 VV9       0.169000
      5 C15        107.1250   107.3780   111.4000 ca         1 VV9      -0.124500
      6 C16        107.3830   106.9160   110.1200 ca         1 VV9      -0.006500
      7 C01        110.5840   108.1840   100.4220 c3         1 VV9       0.146900
      8 C03        110.4320   109.0220   102.6330 ca         1 VV9       0.177100
      9 C04        110.3820   107.7480   103.1940 ca         1 VV9      -0.200000
     10 C05        110.2570   107.5820   104.5650 ca         1 VV9      -0.030000
     11 C06        110.1870   108.6740   105.4160 ca         1 VV9      -0.126300
     12 C07        110.0900   108.5290   106.9100 c5         1 VV9       0.442800
     13 C19        110.2660   106.3430   108.0930 c5         1 VV9       0.213800
     14 C20        111.7020   106.6750   107.7450 c5         1 VV9       0.054600
     15 C22        110.2300   109.9500   104.8640 ca         1 VV9      -0.023000
     16 C23        110.3500   110.1200   103.4970 ca         1 VV9      -0.059900
     17 N08        109.4570   107.2720   107.3000 n3         1 VV9      -0.768500
     18 O17        107.4190   105.8380   107.3730 o          1 VV9      -0.528000
     19 O18        107.2960   108.1910   106.4780 o          1 VV9      -0.528000
     20 S09        107.8160   107.2310   107.4350 sy         1 VV9       1.181600
     21 S21        111.7370   108.4850   107.7120 ss         1 VV9      -0.420000
     22 BR1        110.3830   111.8600   102.7730 br         1 VV9      -0.078100
     23 CL1        106.5940   109.3090   113.1970 cl         1 VV9      -0.183000
     24 H1         107.2850   109.8840   108.4570 ha         1 VV9       0.138500
     25 H2         106.8330   110.6970   110.7280 ha         1 VV9       0.136000
     26 H3         107.0680   106.6820   112.2250 ha         1 VV9       0.136000
     27 H4         107.5190   105.8560   109.9590 ha         1 VV9       0.138500
     28 H5         110.6640   108.6150    99.4280 h1         1 VV9       0.045033
     29 H6         111.4480   107.5400   100.6000 h1         1 VV9       0.045033
     30 H7         109.6740   107.5810   100.4750 h1         1 VV9       0.045033
     31 H8         110.4320   106.8690   102.5660 ha         1 VV9       0.121000
     32 H9         110.1990   106.5760   104.9610 ha         1 VV9       0.121000
     33 H10        109.5800   109.4000   107.3320 h2         1 VV9       0.085700
     34 H11        110.0290   105.3140   107.8260 h1         1 VV9       0.068200
     35 H12        110.1020   106.4800   109.1660 h1         1 VV9       0.068200
     36 H13        111.9940   106.2610   106.7800 h1         1 VV9       0.084700
     37 H14        112.3920   106.3160   108.5060 h1         1 VV9       0.084700
     38 H15        110.1620   110.8180   105.5090 ha         1 VV9       0.128000
     39 O02        110.5430   109.2740   101.3250 os         1 VV9      -0.321100
@<TRIPOS>BOND
     1     1     2 ar  
     2     1     6 ar  
     3     1    20 1   
     4     2     3 ar  
     5     2    24 1   
     6     3     4 ar  
     7     3    25 1   
     8     4     5 ar  
     9     4    23 1   
    10     5     6 ar  
    11     5    26 1   
    12     6    27 1   
    13     7    28 1   
    14     7    29 1   
    15     7    30 1   
    16     7    39 1   
    17     8     9 ar  
    18     8    16 ar  
    19     8    39 1   
    20     9    10 ar  
    21     9    31 1   
    22    10    11 ar  
    23    10    32 1   
    24    11    12 1   
    25    11    15 ar  
    26    12    17 1   
    27    12    21 1   
    28    12    33 1   
    29    13    14 1   
    30    13    17 1   
    31    13    34 1   
    32    13    35 1   
    33    14    21 1   
    34    14    36 1   
    35    14    37 1   
    36    15    16 ar  
    37    15    38 1   
    38    16    22 1   
    39    17    20 1   
    40    18    20 2   
    41    19    20 2   
@<TRIPOS>SUBSTRUCTURE
     1 VV9         1 TEMP              0 ****  ****    0 ROOT
