@<TRIPOS>MOLECULE
VV9
   39    41     1     0     0
SMALL
No Charge or Current Charge


@<TRIPOS>ATOM
      1 C10        107.5980   108.1680   108.9170 ca         1 VV9      -0.304500
      2 C11        107.4450   109.0220   110.0300 ca         1 VV9      -0.006500
      3 C12        106.8480   108.5370   111.2060 ca         1 VV9      -0.124500
      4 C13        106.4050   107.2060   111.2740 ca         1 VV9       0.169000
      5 C15        106.5570   106.3540   110.1700 ca         1 VV9      -0.124500
      6 C16        107.1530   106.8310   108.9900 ca         1 VV9      -0.006500
      7 C01        109.6770   107.3350   100.3690 c3         1 VV9       0.146900
      8 C03        110.0860   108.5980   102.4540 ca         1 VV9       0.177100
      9 C04        110.2810   107.4210   103.2090 ca         1 VV9      -0.200000
     10 C05        110.5700   107.5030   104.5820 ca         1 VV9      -0.030000
     11 C06        110.6700   108.7550   105.2230 ca         1 VV9      -0.126300
     12 C07        110.9820   108.8440   106.7140 c5         1 VV9       0.442800
     13 C19        110.5600   108.0020   108.8830 c5         1 VV9       0.213800
     14 C20        111.8570   107.2110   108.6020 c5         1 VV9       0.054600
     15 C22        110.4750   109.9270   104.4660 ca         1 VV9      -0.023000
     16 C23        110.1850   109.8500   103.0930 ca         1 VV9      -0.059900
     17 N08        109.9580   108.1720   107.5360 n3         1 VV9      -0.768500
     18 O17        107.7600   108.0660   106.2740 o          1 VV9      -0.528000
     19 O18        108.4720   110.2310   107.4680 o          1 VV9      -0.528000
     20 S09        108.3760   108.7690   107.4050 sy         1 VV9       1.181600
     21 S21        112.5960   108.0180   107.1120 ss         1 VV9      -0.420000
     22 Br1        109.9250   111.4750   102.1070 br         1 VV9      -0.078100
     23 Cl1        105.6590   106.6050   112.7500 cl         1 VV9      -0.183000
     24 H1         107.7870   110.0550   109.9920 ha         1 VV9       0.138500
     25 H2         106.7290   109.1910   112.0660 ha         1 VV9       0.136000
     26 H3         106.2140   105.3250   110.2280 ha         1 VV9       0.136000
     27 H4         107.2720   106.1600   108.1390 ha         1 VV9       0.138500
     28 H5         109.4470   107.5400    99.3170 h1         1 VV9       0.045033
     29 H6         110.6140   106.7640   100.4070 h1         1 VV9       0.045033
     30 H7         108.8690   106.7150   100.7790 h1         1 VV9       0.045033
     31 H8         110.2110   106.4390   102.7530 ha         1 VV9       0.121000
     32 H9         110.7110   106.5900   105.1570 ha         1 VV9       0.121000
     33 H10        111.0700   109.8990   107.0080 h2         1 VV9       0.085700
     34 H11        109.9250   107.4310   109.5710 h1         1 VV9       0.068200
     35 H12        110.7750   108.9720   109.3550 h1         1 VV9       0.068200
     36 H13        111.6260   106.1640   108.3690 h1         1 VV9       0.084700
     37 H14        112.5500   107.2340   109.4530 h1         1 VV9       0.084700
     38 H15        110.5460   110.9020   104.9440 ha         1 VV9       0.128000
     39 O02        109.7990   108.5670   101.1020 os         1 VV9      -0.321100
@<TRIPOS>BOND
     1     1     2 ar  
     2     1     6 ar  
     3     1    20 1   
     4     2     3 ar  
     5     2    24 1   
     6     3     4 ar  
     7     3    25 1   
     8     4     5 ar  
     9     4    23 1   
    10     5     6 ar  
    11     5    26 1   
    12     6    27 1   
    13     7    28 1   
    14     7    29 1   
    15     7    30 1   
    16     7    39 1   
    17     8     9 ar  
    18     8    16 ar  
    19     8    39 1   
    20     9    10 ar  
    21     9    31 1   
    22    10    11 ar  
    23    10    32 1   
    24    11    12 1   
    25    11    15 ar  
    26    12    17 1   
    27    12    21 1   
    28    12    33 1   
    29    13    14 1   
    30    13    17 1   
    31    13    34 1   
    32    13    35 1   
    33    14    21 1   
    34    14    36 1   
    35    14    37 1   
    36    15    16 ar  
    37    15    38 1   
    38    16    22 1   
    39    17    20 1   
    40    18    20 2   
    41    19    20 2   
@<TRIPOS>SUBSTRUCTURE
     1 VV9         1 TEMP              0 ****  ****    0 ROOT
