@<TRIPOS>MOLECULE
VVA
   72    71     1     0     0
SMALL
No Charge or Current Charge


@<TRIPOS>ATOM
      1 O1P         -5.4780     1.0050     0.1300 o          1 VVA      -0.831000
      2 P           -6.9640     0.8780     0.1480 p5         1 VVA       1.397800
      3 O2P         -7.6420     1.9800    -0.5970 o          1 VVA      -0.831000
      4 O4P         -7.5480     0.7660     1.6460 os         1 VVA      -0.594400
      5 C4          -6.9470     1.4600     2.7610 c3         1 VVA       0.219600
      6 C5          -6.7630     2.9910     2.4750 c3         1 VVA       0.150800
      7 N6          -7.9610     3.6570     1.9070 n8         1 VVA      -0.993200
      8 O3P         -7.4490    -0.5690    -0.3760 os         1 VVA      -0.578400
      9 C1          -6.7570    -1.7680     0.0140 c3         1 VVA       0.221600
     10 C2          -5.9960    -2.3590    -1.2020 c3         1 VVA       0.160600
     11 O2          -4.8370    -1.5550    -1.4920 os         1 VVA      -0.414100
     12 C31         -4.0540    -1.9120    -2.5560 c          1 VVA       0.593100
     13 O31         -4.2600    -2.8820    -3.2750 o          1 VVA      -0.523000
     14 C32         -2.8560    -0.9750    -2.7210 c3         1 VVA      -0.143400
     15 C33         -1.6030    -1.5320    -2.0040 c3         1 VVA      -0.066400
     16 C34         -0.3690    -0.6140    -2.1420 c3         1 VVA      -0.077400
     17 C35          0.8820    -1.1720    -1.4290 c3         1 VVA      -0.074400
     18 C36          2.1160    -0.2550    -1.5670 c3         1 VVA      -0.075400
     19 C37          3.3670    -0.8130    -0.8550 c3         1 VVA      -0.074400
     20 C38          4.6020     0.1040    -0.9930 c3         1 VVA      -0.074400
     21 C39          5.8530    -0.4540    -0.2810 c3         1 VVA      -0.074400
     22 H2          -7.5850     1.3470     3.6460 h1         1 VVA       0.027700
     23 H3          -5.9710     1.0210     3.0060 h1         1 VVA       0.027700
     24 H4          -6.4990     3.5000     3.4120 h1         1 VVA       0.012700
     25 H5          -5.9290     3.1370     1.7760 h1         1 VVA       0.012700
     26 H6          -7.7100     4.6150     1.6350 hn         1 VVA       0.387000
     27 H7          -8.1520     3.1940     1.0040 hn         1 VVA       0.387000
     28 H9          -6.0520    -1.5850     0.8360 h1         1 VVA       0.030700
     29 H10         -7.4830    -2.5120     0.3650 h1         1 VVA       0.030700
     30 H11         -5.6930    -3.3860    -0.9590 h1         1 VVA       0.039700
     31 H12         -6.6730    -2.4000    -2.0650 h1         1 VVA       0.039700
     32 H13         -2.6360    -0.8560    -3.7880 hc         1 VVA       0.075200
     33 H14         -3.0940    -0.0060    -2.2650 hc         1 VVA       0.075200
     34 H15         -1.8300    -1.6750    -0.9400 hc         1 VVA       0.048200
     35 H16         -1.3640    -2.5220    -2.4150 hc         1 VVA       0.048200
     36 H17         -0.1430    -0.4720    -3.2060 hc         1 VVA       0.038700
     37 H18         -0.6080     0.3750    -1.7300 hc         1 VVA       0.038700
     38 H19          0.6560    -1.3140    -0.3640 hc         1 VVA       0.036700
     39 H20          1.1200    -2.1610    -1.8410 hc         1 VVA       0.036700
     40 H21          2.3420    -0.1120    -2.6320 hc         1 VVA       0.037700
     41 H22          1.8780     0.7340    -1.1550 hc         1 VVA       0.037700
     42 H23          3.1420    -0.9550     0.2100 hc         1 VVA       0.036200
     43 H24          3.6050    -1.8020    -1.2670 hc         1 VVA       0.036200
     44 H25          4.8270     0.2470    -2.0580 hc         1 VVA       0.036700
     45 H26          4.3640     1.0930    -0.5810 hc         1 VVA       0.036700
     46 H27          5.6280    -0.5970     0.7840 hc         1 VVA       0.036200
     47 H28          6.0910    -1.4430    -0.6930 hc         1 VVA       0.036200
     48 C40          7.0880     0.4630    -0.4190 c3         1 VVA      -0.074400
     49 C41          8.3390    -0.0960     0.2930 c3         1 VVA      -0.074400
     50 C42          9.5740     0.8210     0.1550 c3         1 VVA      -0.074400
     51 C43         10.8250     0.2630     0.8670 c3         1 VVA      -0.074400
     52 C44         12.0600     1.1800     0.7290 c3         1 VVA      -0.074400
     53 C45         13.3110     0.6210     1.4410 c3         1 VVA      -0.075400
     54 C46         14.5450     1.5380     1.3030 c3         1 VVA      -0.075400
     55 C47         15.7940     0.9810     2.0140 c3         1 VVA      -0.088100
     56 H8           7.3130     0.6050    -1.4840 hc         1 VVA       0.036700
     57 H29          6.8500     1.4520    -0.0070 hc         1 VVA       0.036700
     58 H30          8.1140    -0.2380     1.3580 hc         1 VVA       0.036700
     59 H31          8.5770    -1.0840    -0.1190 hc         1 VVA       0.036700
     60 H32          9.7990     0.9640    -0.9100 hc         1 VVA       0.036700
     61 H33          9.3360     1.8100     0.5670 hc         1 VVA       0.036700
     62 H34         10.5990     0.1200     1.9320 hc         1 VVA       0.036700
     63 H35         11.0630    -0.7260     0.4550 hc         1 VVA       0.036700
     64 H36         12.2850     1.3230    -0.3360 hc         1 VVA       0.036700
     65 H37         11.8220     2.1690     1.1410 hc         1 VVA       0.036700
     66 H38         13.0850     0.4790     2.5060 hc         1 VVA       0.036700
     67 H39         13.5490    -0.3670     1.0290 hc         1 VVA       0.036700
     68 H40         14.7750     1.6820     0.2400 hc         1 VVA       0.036700
     69 H41         14.3120     2.5270     1.7170 hc         1 VVA       0.036700
     70 H42         16.0740     0.0060     1.5980 hc         1 VVA       0.030033
     71 H43         16.6420     1.6640     1.8880 hc         1 VVA       0.030033
     72 H44         15.6070     0.8590     3.0880 hc         1 VVA       0.030033
@<TRIPOS>BOND
     1     1     2 1   
     2     2     3 1   
     3     2     4 1   
     4     2     8 1   
     5     4     5 1   
     6     5     6 1   
     7     5    22 1   
     8     5    23 1   
     9     6     7 1   
    10     6    24 1   
    11     6    25 1   
    12     7    26 1   
    13     7    27 1   
    14     8     9 1   
    15     9    10 1   
    16     9    28 1   
    17     9    29 1   
    18    10    11 1   
    19    10    30 1   
    20    10    31 1   
    21    11    12 1   
    22    12    13 2   
    23    12    14 1   
    24    14    15 1   
    25    14    32 1   
    26    14    33 1   
    27    15    16 1   
    28    15    34 1   
    29    15    35 1   
    30    16    17 1   
    31    16    36 1   
    32    16    37 1   
    33    17    18 1   
    34    17    38 1   
    35    17    39 1   
    36    18    19 1   
    37    18    40 1   
    38    18    41 1   
    39    19    20 1   
    40    19    42 1   
    41    19    43 1   
    42    20    21 1   
    43    20    44 1   
    44    20    45 1   
    45    21    46 1   
    46    21    47 1   
    47    21    48 1   
    48    48    49 1   
    49    48    56 1   
    50    48    57 1   
    51    49    50 1   
    52    49    58 1   
    53    49    59 1   
    54    50    51 1   
    55    50    60 1   
    56    50    61 1   
    57    51    52 1   
    58    51    62 1   
    59    51    63 1   
    60    52    53 1   
    61    52    64 1   
    62    52    65 1   
    63    53    54 1   
    64    53    66 1   
    65    53    67 1   
    66    54    55 1   
    67    54    68 1   
    68    54    69 1   
    69    55    70 1   
    70    55    71 1   
    71    55    72 1   
@<TRIPOS>SUBSTRUCTURE
     1 VVA         1 TEMP              0 ****  ****    0 ROOT
