@<TRIPOS>MOLECULE
VVA
   72    71     1     0     0
SMALL
bcc


@<TRIPOS>ATOM
      1 O1P         -9.6140    -0.4770     1.2040 o          1 VVA      -0.831000
      2 P           -8.2980     0.2380     1.1340 p5         1 VVA       1.397800
      3 O2P         -7.5430     0.5200     2.3960 o          1 VVA      -0.831000
      4 O4P         -8.4260     1.6020     0.2350 os         1 VVA      -0.571200
      5 C4          -9.1380     2.6960     0.7940 c3         1 VVA       0.196400
      6 C5          -9.1650     3.8250    -0.2100 c3         1 VVA       0.150800
      7 N6          -9.9000     3.4530    -1.4080 n8         1 VVA      -0.882800
      8 O3P         -7.3200    -0.5000     0.0390 os         1 VVA      -0.555200
      9 C1          -7.0790    -1.8800     0.2130 c3         1 VVA       0.198400
     10 C2          -5.9360    -2.3030    -0.6690 c3         1 VVA       0.137400
     11 O2          -4.7520    -1.6400    -0.2150 os         1 VVA      -0.390900
     12 C31         -3.6020    -1.9480    -0.8030 c          1 VVA       0.642100
     13 O31         -3.5130    -2.7460    -1.7030 o          1 VVA      -0.572000
     14 C32         -2.4530    -1.1790    -0.2080 c3         1 VVA      -0.143400
     15 C33         -1.0920    -1.6000    -0.7390 c3         1 VVA      -0.066400
     16 C34          0.0370    -0.7920    -0.1130 c3         1 VVA      -0.077400
     17 C35          1.4120    -1.2040    -0.6230 c3         1 VVA      -0.074400
     18 C36          2.5480    -0.3980    -0.0060 c3         1 VVA      -0.075400
     19 C37          3.9240    -0.8120    -0.5130 c3         1 VVA      -0.074400
     20 C38          5.0610    -0.0100     0.1070 c3         1 VVA      -0.074400
     21 C39          6.4380    -0.4310    -0.3920 c3         1 VVA      -0.074400
     22 H2         -10.1650     2.4040     1.0430 h1         1 VVA       0.027700
     23 H3          -8.6570     3.0410     1.7160 h1         1 VVA       0.027700
     24 H4          -9.6760     4.6680     0.2630 h1         1 VVA       0.012700
     25 H5          -8.1340     4.1560    -0.4010 h1         1 VVA       0.012700
     26 H6          -9.9520     4.2490    -2.0300 hn         1 VVA       0.331800
     27 H7          -9.3840     2.7440    -1.9130 hn         1 VVA       0.331800
     28 H9          -6.8450    -2.1230     1.2570 h1         1 VVA       0.030700
     29 H10         -7.9530    -2.4750    -0.0680 h1         1 VVA       0.030700
     30 H11         -5.8170    -3.3860    -0.6020 h1         1 VVA       0.039700
     31 H12         -6.1340    -2.0480    -1.7130 h1         1 VVA       0.039700
     32 H13         -2.6230    -0.1140    -0.3990 hc         1 VVA       0.075200
     33 H14         -2.4920    -1.2880     0.8800 hc         1 VVA       0.075200
     34 H15         -0.9320    -2.6640    -0.5400 hc         1 VVA       0.048200
     35 H16         -1.0630    -1.4810    -1.8260 hc         1 VVA       0.048200
     36 H17         -0.1190     0.2730    -0.3140 hc         1 VVA       0.038700
     37 H18          0.0050    -0.9030     0.9760 hc         1 VVA       0.038700
     38 H19          1.5690    -2.2690    -0.4190 hc         1 VVA       0.036700
     39 H20          1.4420    -1.0970    -1.7130 hc         1 VVA       0.036700
     40 H21          2.3940     0.6670    -0.2110 hc         1 VVA       0.037700
     41 H22          2.5160    -0.5030     1.0840 hc         1 VVA       0.037700
     42 H23          4.0770    -1.8780    -0.3090 hc         1 VVA       0.036200
     43 H24          3.9570    -0.7050    -1.6030 hc         1 VVA       0.036200
     44 H25          4.9120     1.0550    -0.1010 hc         1 VVA       0.036700
     45 H26          5.0240    -0.1120     1.1970 hc         1 VVA       0.036700
     46 H27          6.5850    -1.4970    -0.1860 hc         1 VVA       0.036200
     47 H28          6.4780    -0.3270    -1.4820 hc         1 VVA       0.036200
     48 C40          7.5760     0.3660     0.2330 c3         1 VVA      -0.074400
     49 C41          8.9530    -0.0600    -0.2600 c3         1 VVA      -0.074400
     50 C42         10.0910     0.7260     0.3790 c3         1 VVA      -0.074400
     51 C43         11.4690     0.2960    -0.1090 c3         1 VVA      -0.074400
     52 C44         12.6080     1.0690     0.5450 c3         1 VVA      -0.074400
     53 C45         13.9870     0.6320     0.0660 c3         1 VVA      -0.075400
     54 C46         15.1260     1.3930     0.7320 c3         1 VVA      -0.075400
     55 C47         16.4990     0.9470     0.2490 c3         1 VVA      -0.088100
     56 H8           7.4310     1.4320     0.0270 hc         1 VVA       0.036700
     57 H29          7.5320     0.2620     1.3230 hc         1 VVA       0.036700
     58 H30          9.0930    -1.1280    -0.0610 hc         1 VVA       0.036700
     59 H31          9.0010     0.0530    -1.3490 hc         1 VVA       0.036700
     60 H32          9.9540     1.7940     0.1790 hc         1 VVA       0.036700
     61 H33         10.0410     0.6140     1.4680 hc         1 VVA       0.036700
     62 H34         11.6010    -0.7750     0.0820 hc         1 VVA       0.036700
     63 H35         11.5250     0.4170    -1.1960 hc         1 VVA       0.036700
     64 H36         12.4800     2.1400     0.3510 hc         1 VVA       0.036700
     65 H37         12.5470     0.9500     1.6320 hc         1 VVA       0.036700
     66 H38         14.1100    -0.4410     0.2510 hc         1 VVA       0.036700
     67 H39         14.0520     0.7600    -1.0210 hc         1 VVA       0.036700
     68 H40         15.0030     2.4650     0.5490 hc         1 VVA       0.036700
     69 H41         15.0590     1.2630     1.8170 hc         1 VVA       0.036700
     70 H42         16.6070     1.0980    -0.8270 hc         1 VVA       0.030033
     71 H43         17.2990     1.5020     0.7410 hc         1 VVA       0.030033
     72 H44         16.6610    -0.1140     0.4480 hc         1 VVA       0.030033
@<TRIPOS>BOND
     1     1     2 1   
     2     2     3 1   
     3     2     4 1   
     4     2     8 1   
     5     4     5 1   
     6     5     6 1   
     7     5    22 1   
     8     5    23 1   
     9     6     7 1   
    10     6    24 1   
    11     6    25 1   
    12     7    26 1   
    13     7    27 1   
    14     8     9 1   
    15     9    10 1   
    16     9    28 1   
    17     9    29 1   
    18    10    11 1   
    19    10    30 1   
    20    10    31 1   
    21    11    12 1   
    22    12    13 2   
    23    12    14 1   
    24    14    15 1   
    25    14    32 1   
    26    14    33 1   
    27    15    16 1   
    28    15    34 1   
    29    15    35 1   
    30    16    17 1   
    31    16    36 1   
    32    16    37 1   
    33    17    18 1   
    34    17    38 1   
    35    17    39 1   
    36    18    19 1   
    37    18    40 1   
    38    18    41 1   
    39    19    20 1   
    40    19    42 1   
    41    19    43 1   
    42    20    21 1   
    43    20    44 1   
    44    20    45 1   
    45    21    46 1   
    46    21    47 1   
    47    21    48 1   
    48    48    49 1   
    49    48    56 1   
    50    48    57 1   
    51    49    50 1   
    52    49    58 1   
    53    49    59 1   
    54    50    51 1   
    55    50    60 1   
    56    50    61 1   
    57    51    52 1   
    58    51    62 1   
    59    51    63 1   
    60    52    53 1   
    61    52    64 1   
    62    52    65 1   
    63    53    54 1   
    64    53    66 1   
    65    53    67 1   
    66    54    55 1   
    67    54    68 1   
    68    54    69 1   
    69    55    70 1   
    70    55    71 1   
    71    55    72 1   
@<TRIPOS>SUBSTRUCTURE
     1 VVA         1 TEMP              0 ****  ****    0 ROOT
