@<TRIPOS>MOLECULE
VVC
   31    32     1     0     0
SMALL
No Charge or Current Charge


@<TRIPOS>ATOM
      1 C4         -25.4370   -50.5690    -8.0430 c3         1 VVC       0.156600
      2 C5         -26.8830   -47.4700    -8.8030 c5         1 VVC       0.323700
      3 C6         -24.6140   -46.4370    -8.9520 cc         1 VVC       0.033600
      4 C11        -27.3720   -49.6190    -9.6080 c5         1 VVC       0.165300
      5 C7         -23.8270   -45.3180    -9.0910 cd         1 VVC      -0.494600
      6 C8         -24.4860   -44.0750    -9.1620 cd         1 VVC       0.782500
      7 C9         -26.5850   -45.0070    -8.9720 c          1 VVC       0.716400
      8 C10        -26.7490   -48.2930   -10.1070 c5         1 VVC      -0.113400
      9 N1         -25.9970   -46.2820    -8.8840 n          1 VVC      -0.320000
     10 C3         -26.7540   -49.7170    -8.1430 c5         1 VVC       0.230100
     11 N3         -25.7650   -43.9180    -9.1050 nc         1 VVC      -0.769100
     12 C2         -27.7020   -50.2900    -7.1510 c1         1 VVC      -0.166100
     13 O1         -24.4260   -50.1880    -9.0020 oh         1 VVC      -0.736000
     14 O2         -26.4680   -48.3500    -7.7410 os         1 VVC      -0.458000
     15 O3         -27.7940   -44.8430    -8.9370 o          1 VVC      -0.551000
     16 O4         -28.8090   -49.5150    -9.6480 oh         1 VVC      -0.710000
     17 H1         -25.7000   -51.6260    -8.1910 h1         1 VVC       0.043200
     18 H2         -25.0400   -50.4780    -7.0220 h1         1 VVC       0.043200
     19 H3         -27.9230   -47.1520    -8.6430 h2         1 VVC       0.121700
     20 H4         -24.2720   -47.4680    -8.8680 h4         1 VVC       0.222000
     21 H5         -27.0470   -50.4670   -10.2280 h1         1 VVC       0.060700
     22 H6         -22.7470   -45.3850    -9.1440 ha         1 VVC       0.198000
     23 H7         -25.7140   -48.4250   -10.4340 hc         1 VVC       0.083200
     24 H8         -27.3020   -47.8490   -10.9410 hc         1 VVC       0.083200
     25 H9         -24.3220   -42.1350    -9.0530 hn         1 VVC       0.501500
     26 H10        -22.8460   -42.9920    -8.9240 hn         1 VVC       0.501500
     27 H11        -29.1340   -51.2450    -5.6510 ha         1 VVC       0.261000
     28 H12        -23.6450   -50.7700    -8.8440 ho         1 VVC       0.511000
     29 H13        -29.1520   -50.1190    -8.9470 ho         1 VVC       0.511000
     30 N2         -23.7900   -42.9630    -9.2830 nv         1 VVC      -1.040200
     31 C1         -28.4670   -50.7990    -6.3620 c1         1 VVC      -0.195000
@<TRIPOS>BOND
     1     1    10 1   
     2     1    13 1   
     3     1    17 1   
     4     1    18 1   
     5     2     8 1   
     6     2     9 1   
     7     2    14 1   
     8     2    19 1   
     9     3     5 2   
    10     3     9 1   
    11     3    20 1   
    12     4     8 1   
    13     4    10 1   
    14     4    16 1   
    15     4    21 1   
    16     5     6 1   
    17     5    22 1   
    18     6    11 2   
    19     6    30 1   
    20     7     9 1   
    21     7    11 1   
    22     7    15 2   
    23     8    23 1   
    24     8    24 1   
    25    10    12 1   
    26    10    14 1   
    27    12    31 3   
    28    13    28 1   
    29    16    29 1   
    30    25    30 1   
    31    26    30 1   
    32    27    31 1   
@<TRIPOS>SUBSTRUCTURE
     1 VVC         1 TEMP              0 ****  ****    0 ROOT
