@<TRIPOS>MOLECULE
VVC
   31    32     1     0     0
SMALL
abcg2


@<TRIPOS>ATOM
      1 C4         -25.3990   -50.3430    -8.0300 c3         1 VVC       0.156600
      2 C5         -26.9870   -47.4290    -8.9100 c5         1 VVC       0.323700
      3 C6         -24.7370   -46.5080    -8.9540 cc         1 VVC       0.033600
      4 C11        -27.3590   -49.6830    -9.5760 c5         1 VVC       0.165300
      5 C7         -23.8610   -45.4810    -8.9820 cd         1 VVC      -0.494600
      6 C8         -24.4150   -44.1640    -9.0150 cd         1 VVC       0.782500
      7 C9         -26.6040   -44.9770    -9.0080 c          1 VVC       0.716400
      8 C10        -26.9350   -48.3380   -10.1340 c5         1 VVC      -0.113400
      9 N1         -26.0800   -46.2900    -8.9590 n          1 VVC      -0.320000
     10 C3         -26.7630   -49.6500    -8.1270 c5         1 VVC       0.230100
     11 N3         -25.7250   -43.9450    -9.0260 nc         1 VVC      -0.769100
     12 C2         -27.6550   -50.2820    -7.1540 c1         1 VVC      -0.166100
     13 O1         -24.5330   -49.8270    -9.0340 oh         1 VVC      -0.736000
     14 O2         -26.6170   -48.2520    -7.8000 os         1 VVC      -0.458000
     15 O3         -27.8260   -44.8110    -9.0380 o          1 VVC      -0.551000
     16 O4         -28.7790   -49.7230    -9.5840 oh         1 VVC      -0.710000
     17 H1         -25.5480   -51.4190    -8.1570 h1         1 VVC       0.043200
     18 H2         -24.9960   -50.1580    -7.0300 h1         1 VVC       0.043200
     19 H3         -27.9790   -47.0170    -8.7520 h2         1 VVC       0.121700
     20 H4         -24.4290   -47.5440    -8.9120 h4         1 VVC       0.222000
     21 H5         -26.9440   -50.5270   -10.1290 h1         1 VVC       0.060700
     22 H6         -22.7950   -45.6480    -8.9730 ha         1 VVC       0.198000
     23 H7         -25.9200   -48.3960   -10.5190 hc         1 VVC       0.083200
     24 H8         -27.6020   -47.9990   -10.9240 hc         1 VVC       0.083200
     25 H9         -23.9850   -42.1720    -9.0540 hn         1 VVC       0.501500
     26 H10        -22.5990   -43.2130    -9.0220 hn         1 VVC       0.501500
     27 H11        -29.0070   -51.3130    -5.6560 ha         1 VVC       0.261000
     28 H12        -23.6510   -50.1890    -8.8880 ho         1 VVC       0.511000
     29 H13        -29.0730   -50.5290    -9.1390 ho         1 VVC       0.511000
     30 N2         -23.5980   -43.1010    -9.0360 nv         1 VVC      -1.040200
     31 C1         -28.3680   -50.8340    -6.3610 c1         1 VVC      -0.195000
@<TRIPOS>BOND
     1     1    10 1   
     2     1    13 1   
     3     1    17 1   
     4     1    18 1   
     5     2     8 1   
     6     2     9 1   
     7     2    14 1   
     8     2    19 1   
     9     3     5 2   
    10     3     9 1   
    11     3    20 1   
    12     4     8 1   
    13     4    10 1   
    14     4    16 1   
    15     4    21 1   
    16     5     6 1   
    17     5    22 1   
    18     6    11 2   
    19     6    30 1   
    20     7     9 1   
    21     7    11 1   
    22     7    15 2   
    23     8    23 1   
    24     8    24 1   
    25    10    12 1   
    26    10    14 1   
    27    12    31 3   
    28    13    28 1   
    29    16    29 1   
    30    25    30 1   
    31    26    30 1   
    32    27    31 1   
@<TRIPOS>SUBSTRUCTURE
     1 VVC         1 TEMP              0 ****  ****    0 ROOT
