@<TRIPOS>MOLECULE
VVD
   21    21     1     0     0
SMALL
No Charge or Current Charge


@<TRIPOS>ATOM
      1 N1          -6.5300     3.2310   -77.9770 ns         1 VVD      -0.140000
      2 C4          -8.1420     4.9360   -78.5520 ca         1 VVD      -0.169000
      3 C5          -9.3920     5.5590   -78.4110 ca         1 VVD      -0.171000
      4 C6         -10.3270     5.0660   -77.4870 ca         1 VVD       0.172000
      5 C7         -10.0180     3.9440   -76.6940 ca         1 VVD      -0.147600
      6 C8          -8.7610     3.3160   -76.8480 ca         1 VVD      -0.082000
      7 C2          -5.8760     2.1620   -77.3730 c          1 VVD       0.596100
      8 O1          -6.3440     1.4780   -76.4700 o          1 VVD      -0.572100
      9 C3          -7.8140     3.8110   -77.7750 ca         1 VVD      -0.081000
     10 O2         -11.5530     4.1810   -74.9290 o          1 VVD      -0.703000
     11 O3         -11.1710     2.1910   -75.6560 o          1 VVD      -0.703000
     12 H4          -5.9890     3.6850   -78.7020 hn         1 VVD       0.131000
     13 H5          -7.4280     5.3290   -79.2720 ha         1 VVD       0.082000
     14 H6          -9.6420     6.4230   -79.0210 ha         1 VVD       0.103000
     15 H7          -8.5420     2.4470   -76.2340 ha         1 VVD       0.166000
     16 H2          -3.9830     1.0480   -77.4440 hc         1 VVD       0.051033
     17 H1          -4.5530     1.7460   -79.0170 hc         1 VVD       0.051033
     18 H3          -3.8840     2.8090   -77.8640 hc         1 VVD       0.051033
     19 F1         -11.5320     5.6720   -77.3970 f          1 VVD      -0.173000
     20 C1          -4.4810     1.8920   -77.9340 c3         1 VVD      -0.182100
     21 C9         -11.0100     3.4030   -75.7000 c          1 VVD       0.720600
@<TRIPOS>BOND
     1     1     7 1   
     2     1     9 1   
     3     1    12 1   
     4     2     3 ar  
     5     2     9 ar  
     6     2    13 1   
     7     3     4 ar  
     8     3    14 1   
     9     4     5 ar  
    10     4    19 1   
    11     5     6 ar  
    12     5    21 1   
    13     6     9 ar  
    14     6    15 1   
    15     7     8 2   
    16     7    20 1   
    17    10    21 1   
    18    11    21 1   
    19    16    20 1   
    20    17    20 1   
    21    18    20 1   
@<TRIPOS>SUBSTRUCTURE
     1 VVD         1 TEMP              0 ****  ****    0 ROOT
