@<TRIPOS>MOLECULE
VVD
   21    21     1     0     0
SMALL
abcg2


@<TRIPOS>ATOM
      1 N1          -6.5070     3.3240   -77.9490 ns         1 VVD      -0.140000
      2 C4          -8.0910     5.0290   -78.4550 ca         1 VVD      -0.169000
      3 C5          -9.3270     5.6280   -78.3110 ca         1 VVD      -0.171000
      4 C6         -10.2570     5.0800   -77.4450 ca         1 VVD       0.172000
      5 C7          -9.9920     3.9320   -76.7130 ca         1 VVD      -0.147600
      6 C8          -8.7440     3.3320   -76.8900 ca         1 VVD      -0.082000
      7 C2          -5.9930     2.1450   -77.5170 c          1 VVD       0.596100
      8 O1          -6.5960     1.3560   -76.8100 o          1 VVD      -0.572100
      9 C3          -7.7830     3.8670   -77.7440 ca         1 VVD      -0.081000
     10 O2         -11.8310     4.0530   -75.2240 o          1 VVD      -0.703000
     11 O3         -10.7940     2.0940   -75.4760 o          1 VVD      -0.703000
     12 H4          -5.9070     3.8770   -78.5400 hn         1 VVD       0.131000
     13 H5          -7.3650     5.4650   -79.1310 ha         1 VVD       0.082000
     14 H6          -9.5710     6.5200   -78.8740 ha         1 VVD       0.103000
     15 H7          -8.5400     2.4310   -76.3360 ha         1 VVD       0.166000
     16 H2          -3.9380     1.7320   -77.1160 hc         1 VVD       0.051033
     17 H1          -4.5690     0.9410   -78.5510 hc         1 VVD       0.051033
     18 H3          -4.1600     2.6590   -78.6040 hc         1 VVD       0.051033
     19 F1         -11.4500     5.6930   -77.3730 f          1 VVD      -0.173000
     20 C1          -4.5840     1.8710   -77.9840 c3         1 VVD      -0.182100
     21 C9         -10.9720     3.3020   -75.7140 c          1 VVD       0.720600
@<TRIPOS>BOND
     1     1     7 1   
     2     1     9 1   
     3     1    12 1   
     4     2     3 ar  
     5     2     9 ar  
     6     2    13 1   
     7     3     4 ar  
     8     3    14 1   
     9     4     5 ar  
    10     4    19 1   
    11     5     6 ar  
    12     5    21 1   
    13     6     9 ar  
    14     6    15 1   
    15     7     8 2   
    16     7    20 1   
    17    10    21 1   
    18    11    21 1   
    19    16    20 1   
    20    17    20 1   
    21    18    20 1   
@<TRIPOS>SUBSTRUCTURE
     1 VVD         1 TEMP              0 ****  ****    0 ROOT
