@<TRIPOS>MOLECULE
VVE
   53    56     1     0     0
SMALL
No Charge or Current Charge


@<TRIPOS>ATOM
      1 C10         46.6410    -3.5960    20.1180 ca         1 VVE      -0.125000
      2 C15         46.9300    -8.1080    24.1230 ca         1 VVE       0.142000
      3 C11         47.1380    -4.9120    20.1280 ca         1 VVE      -0.085000
      4 C12         46.2880    -5.9810    20.4620 ca         1 VVE       0.055100
      5 C14         46.7890    -7.3470    22.9530 ca         1 VVE      -0.142000
      6 C16         47.2000    -9.4830    24.0470 ca         1 VVE      -0.092000
      7 C1          45.3030   -15.3390    21.8530 c3         1 VVE      -0.072100
      8 C2          44.7930   -13.9090    21.5560 c3         1 VVE      -0.157400
      9 O1          44.5780   -13.5140    23.9060 o          1 VVE      -0.535100
     10 N1          44.1430   -11.6650    22.6140 n          1 VVE      -0.292600
     11 C4          43.8630   -11.0080    21.4000 c          1 VVE       0.603000
     12 O2          43.9010   -11.4660    20.2690 o          1 VVE      -0.559000
     13 N2          43.4770    -9.7040    21.7240 n          1 VVE      -0.297000
     14 C5          42.8150    -8.7990    20.7600 c3         1 VVE       0.125000
     15 C6          43.7670    -7.7750    20.1140 c3         1 VVE       0.134600
     16 C7          44.9270    -5.7310    20.7650 ca         1 VVE       0.156100
     17 C8          44.4430    -4.4140    20.7740 ca         1 VVE      -0.183000
     18 C9          45.2980    -3.3500    20.4470 ca         1 VVE       0.159000
     19 Cl1         44.6830    -1.7030    20.4470 cl         1 VVE      -0.198000
     20 O4          46.8190    -7.2510    20.5180 os         1 VVE      -0.231200
     21 C13         46.9130    -7.9680    21.6930 ca         1 VVE       0.131100
     22 C17         47.3340   -10.1060    22.7920 ca         1 VVE       0.021000
     23 N3          47.9040   -12.6410    22.6350 n1         1 VVE      -0.436000
     24 C19         47.1850    -9.3430    21.6160 ca         1 VVE      -0.098000
     25 C20         43.4640    -9.5340    23.1260 ca         1 VVE       0.019600
     26 C21         43.3270    -8.3620    23.8820 ca         1 VVE      -0.100000
     27 C22         43.5420    -8.4440    25.2720 ca         1 VVE      -0.102000
     28 C23         43.9530    -9.6610    25.8610 ca         1 VVE      -0.116000
     29 C24         44.1720   -10.8070    25.0670 ca         1 VVE      -0.077000
     30 C25         43.9320   -10.7160    23.6830 ca         1 VVE       0.001600
     31 H1          47.2980    -2.7670    19.8650 ha         1 VVE       0.140000
     32 H2          48.1820    -5.1030    19.8920 ha         1 VVE       0.136000
     33 H3          46.5980    -6.2820    23.0360 ha         1 VVE       0.147000
     34 H4          47.3160   -10.0570    24.9630 ha         1 VVE       0.147000
     35 H5          45.4880   -15.8810    20.9180 hc         1 VVE       0.042700
     36 H6          46.2410   -15.3070    22.4210 hc         1 VVE       0.042700
     37 H7          44.5640   -15.9040    22.4340 hc         1 VVE       0.042700
     38 H8          45.4890   -13.3690    20.9050 hc         1 VVE       0.079700
     39 H9          43.8860   -13.9380    20.9410 hc         1 VVE       0.079700
     40 H10         41.9990    -8.2660    21.2650 h1         1 VVE       0.078700
     41 H11         42.3600    -9.4010    19.9640 h1         1 VVE       0.078700
     42 H12         43.2790    -7.3370    19.2340 h1         1 VVE       0.057700
     43 H13         44.6750    -8.2890    19.7770 h1         1 VVE       0.057700
     44 H14         43.4040    -4.2200    21.0220 ha         1 VVE       0.138000
     45 H15         47.2940    -9.8120    20.6410 ha         1 VVE       0.150000
     46 H16         43.0510    -7.4200    23.4180 ha         1 VVE       0.127000
     47 H17         43.4140    -7.5590    25.8910 ha         1 VVE       0.118000
     48 H18         44.1330    -9.7060    26.9330 ha         1 VVE       0.120000
     49 H19         44.5380   -11.7170    25.5330 ha         1 VVE       0.147000
     50 O3          44.0530    -6.7460    21.0790 os         1 VVE      -0.335100
     51 Cl2         46.8030    -7.3250    25.6920 cl         1 VVE      -0.195000
     52 C18         47.6450   -11.5060    22.7100 cg         1 VVE       0.312000
     53 C3          44.4980   -13.0240    22.7870 c          1 VVE       0.640100
@<TRIPOS>BOND
     1     1     3 ar  
     2     1    18 ar  
     3     1    31 1   
     4     2     5 ar  
     5     2     6 ar  
     6     2    51 1   
     7     3     4 ar  
     8     3    32 1   
     9     4    16 ar  
    10     4    20 1   
    11     5    21 ar  
    12     5    33 1   
    13     6    22 ar  
    14     6    34 1   
    15     7     8 1   
    16     7    35 1   
    17     7    36 1   
    18     7    37 1   
    19     8    38 1   
    20     8    39 1   
    21     8    53 1   
    22     9    53 2   
    23    10    11 1   
    24    10    30 1   
    25    10    53 1   
    26    11    12 2   
    27    11    13 1   
    28    13    14 1   
    29    13    25 1   
    30    14    15 1   
    31    14    40 1   
    32    14    41 1   
    33    15    42 1   
    34    15    43 1   
    35    15    50 1   
    36    16    17 ar  
    37    16    50 1   
    38    17    18 ar  
    39    17    44 1   
    40    18    19 1   
    41    20    21 1   
    42    21    24 ar  
    43    22    24 ar  
    44    22    52 1   
    45    23    52 3   
    46    24    45 1   
    47    25    26 ar  
    48    25    30 ar  
    49    26    27 ar  
    50    26    46 1   
    51    27    28 ar  
    52    27    47 1   
    53    28    29 ar  
    54    28    48 1   
    55    29    30 ar  
    56    29    49 1   
@<TRIPOS>SUBSTRUCTURE
     1 VVE         1 TEMP              0 ****  ****    0 ROOT
