@<TRIPOS>MOLECULE
VVE
   53    56     1     0     0
SMALL
abcg2


@<TRIPOS>ATOM
      1 C10         47.3110    -5.1840    19.7860 ca         1 VVE      -0.125000
      2 C15         46.5290    -4.7920    25.4140 ca         1 VVE       0.142000
      3 C11         47.5010    -5.7980    21.0170 ca         1 VVE      -0.085000
      4 C12         46.5230    -6.6150    21.5490 ca         1 VVE       0.055100
      5 C14         46.3160    -5.3860    24.1700 ca         1 VVE      -0.142000
      6 C16         47.2960    -5.3980    26.4090 ca         1 VVE      -0.092000
      7 C1          43.1540   -15.2200    18.8950 c3         1 VVE      -0.072100
      8 C2          43.0000   -13.8160    19.4570 c3         1 VVE      -0.157400
      9 O1          44.7480   -14.3130    20.9400 o          1 VVE      -0.535100
     10 N1          43.8060   -12.2970    21.2450 n          1 VVE      -0.292600
     11 C4          42.9760   -11.2130    20.8450 c          1 VVE       0.603000
     12 O2          42.2860   -11.1330    19.8480 o          1 VVE      -0.559000
     13 N2          43.1210   -10.2430    21.8050 n          1 VVE      -0.297000
     14 C5          42.4600    -8.9550    21.6970 c3         1 VVE       0.125000
     15 C6          43.2080    -7.9810    20.8080 c3         1 VVE       0.134600
     16 C7          45.3160    -6.8350    20.8740 ca         1 VVE       0.156100
     17 C8          45.1260    -6.2400    19.6280 ca         1 VVE      -0.183000
     18 C9          46.1250    -5.4230    19.1120 ca         1 VVE       0.159000
     19 CL1         45.8680    -4.6840    17.5470 cl         1 VVE      -0.198000
     20 O4          46.7390    -7.3120    22.7260 os         1 VVE      -0.231200
     21 C13         46.9160    -6.6240    23.9040 ca         1 VVE       0.131100
     22 C17         47.8820    -6.6500    26.1100 ca         1 VVE       0.021000
     23 N3          49.3390    -7.8960    27.8920 n1         1 VVE      -0.436000
     24 C19         47.6980    -7.2640    24.8670 ca         1 VVE      -0.098000
     25 C20         44.0100   -10.6590    22.7930 ca         1 VVE       0.019600
     26 C21         44.4220   -10.0240    23.9510 ca         1 VVE      -0.100000
     27 C22         45.2950   -10.7190    24.7880 ca         1 VVE      -0.102000
     28 C23         45.7530   -11.9910    24.4510 ca         1 VVE      -0.116000
     29 C24         45.3420   -12.6250    23.2760 ca         1 VVE      -0.077000
     30 C25         44.4570   -11.9440    22.4540 ca         1 VVE       0.001600
     31 H1          48.0690    -4.5400    19.3660 ha         1 VVE       0.140000
     32 H2          48.4240    -5.6560    21.5620 ha         1 VVE       0.136000
     33 H3          45.6960    -4.8900    23.4250 ha         1 VVE       0.147000
     34 H4          47.4650    -4.9190    27.3630 ha         1 VVE       0.147000
     35 H5          42.4360   -15.3830    18.1140 hc         1 VVE       0.042700
     36 H6          44.1130   -15.3350    18.5030 hc         1 VVE       0.042700
     37 H7          42.9840   -15.9900    19.6240 hc         1 VVE       0.042700
     38 H8          43.1330   -13.0430    18.7220 hc         1 VVE       0.079700
     39 H9          42.0090   -13.6820    19.8160 hc         1 VVE       0.079700
     40 H10         42.3550    -8.5420    22.6990 h1         1 VVE       0.078700
     41 H11         41.4630    -9.1160    21.2870 h1         1 VVE       0.078700
     42 H12         42.5880    -7.0990    20.6420 h1         1 VVE       0.057700
     43 H13         43.4570    -8.4380    19.8490 h1         1 VVE       0.057700
     44 H14         44.2140    -6.3810    19.0830 ha         1 VVE       0.138000
     45 H15         48.1710    -8.2140    24.6360 ha         1 VVE       0.150000
     46 H16         44.0650    -9.0360    24.2050 ha         1 VVE       0.127000
     47 H17         45.6100   -10.2630    25.7200 ha         1 VVE       0.118000
     48 H18         46.4340   -12.5080    25.1140 ha         1 VVE       0.120000
     49 H19         45.6960   -13.6100    23.0210 ha         1 VVE       0.147000
     50 O3          44.4100    -7.6170    21.4990 os         1 VVE      -0.335100
     51 CL2         45.7880    -3.2360    25.7480 cl         1 VVE      -0.195000
     52 C18         48.6920    -7.3140    27.0900 cg         1 VVE       0.312000
     53 C3          43.9360   -13.5270    20.5820 c          1 VVE       0.640100
@<TRIPOS>BOND
     1     1     3 ar  
     2     1    18 ar  
     3     1    31 1   
     4     2     5 ar  
     5     2     6 ar  
     6     2    51 1   
     7     3     4 ar  
     8     3    32 1   
     9     4    16 ar  
    10     4    20 1   
    11     5    21 ar  
    12     5    33 1   
    13     6    22 ar  
    14     6    34 1   
    15     7     8 1   
    16     7    35 1   
    17     7    36 1   
    18     7    37 1   
    19     8    38 1   
    20     8    39 1   
    21     8    53 1   
    22     9    53 2   
    23    10    11 1   
    24    10    30 1   
    25    10    53 1   
    26    11    12 2   
    27    11    13 1   
    28    13    14 1   
    29    13    25 1   
    30    14    15 1   
    31    14    40 1   
    32    14    41 1   
    33    15    42 1   
    34    15    43 1   
    35    15    50 1   
    36    16    17 ar  
    37    16    50 1   
    38    17    18 ar  
    39    17    44 1   
    40    18    19 1   
    41    20    21 1   
    42    21    24 ar  
    43    22    24 ar  
    44    22    52 1   
    45    23    52 3   
    46    24    45 1   
    47    25    26 ar  
    48    25    30 ar  
    49    26    27 ar  
    50    26    46 1   
    51    27    28 ar  
    52    27    47 1   
    53    28    29 ar  
    54    28    48 1   
    55    29    30 ar  
    56    29    49 1   
@<TRIPOS>SUBSTRUCTURE
     1 VVE         1 TEMP              0 ****  ****    0 ROOT
