@<TRIPOS>MOLECULE
VVF
   23    23     1     0     0
SMALL
No Charge or Current Charge


@<TRIPOS>ATOM
      1 N1          -7.0550    17.3520   -35.1300 n1         1 VVF      -0.426000
      2 C7          -5.1690    16.9730   -33.3450 c3         1 VVF      -0.101300
      3 C8          -6.2250    17.1690   -34.3340 c1         1 VVF       0.290900
      4 C9           0.6750    13.5160   -36.1060 c3         1 VVF       0.343300
      5 C1          -0.9670    12.0120   -34.8420 ca         1 VVF      -0.084000
      6 C5          -2.9930    12.9080   -33.8270 ca         1 VVF      -0.101000
      7 C6          -4.6650    15.5350   -33.3640 c          1 VVF       0.613100
      8 C4          -2.6590    14.2030   -34.2790 ca         1 VVF      -0.029000
      9 C3          -1.4710    14.3830   -35.0160 ca         1 VVF      -0.116000
     10 C2          -0.6190    13.2960   -35.3120 ca         1 VVF      -0.160300
     11 F2           1.0720    12.4050   -36.7690 f          1 VVF      -0.112000
     12 F            0.5460    14.4920   -37.0350 f          1 VVF      -0.112000
     13 F1           1.6940    13.8770   -35.2950 f          1 VVF      -0.112000
     14 C           -2.1470    11.8220   -34.1070 ca         1 VVF      -0.088000
     15 N           -3.4580    15.3560   -34.0320 ns         1 VVF      -0.142000
     16 O           -5.2970    14.6310   -32.8290 o          1 VVF      -0.558100
     17 H1          -4.3590    17.6690   -33.5840 hc         1 VVF       0.096200
     18 H2          -5.5880    17.1940   -32.3580 hc         1 VVF       0.096200
     19 H3          -0.3240    11.1560   -35.0410 ha         1 VVF       0.135000
     20 H4          -3.8960    12.7190   -33.2550 ha         1 VVF       0.155000
     21 H5          -1.2070    15.3810   -35.3600 ha         1 VVF       0.128000
     22 H6          -2.4080    10.8270   -33.7520 ha         1 VVF       0.127000
     23 H7          -3.0710    16.2070   -34.4200 hn         1 VVF       0.158000
@<TRIPOS>BOND
     1     1     3 3   
     2     2     3 1   
     3     2     7 1   
     4     2    17 1   
     5     2    18 1   
     6     4    10 1   
     7     4    11 1   
     8     4    12 1   
     9     4    13 1   
    10     5    10 ar  
    11     5    14 ar  
    12     5    19 1   
    13     6     8 ar  
    14     6    14 ar  
    15     6    20 1   
    16     7    15 1   
    17     7    16 2   
    18     8     9 ar  
    19     8    15 1   
    20     9    10 ar  
    21     9    21 1   
    22    14    22 1   
    23    15    23 1   
@<TRIPOS>SUBSTRUCTURE
     1 VVF         1 TEMP              0 ****  ****    0 ROOT
