@<TRIPOS>MOLECULE
VVF
   23    23     1     0     0
SMALL
abcg2


@<TRIPOS>ATOM
      1 N1          -6.5810    17.3470   -35.4740 n1         1 VVF      -0.426000
      2 C7          -5.1900    16.8900   -33.3190 c3         1 VVF      -0.101300
      3 C8          -5.9680    17.1530   -34.5210 c1         1 VVF       0.290900
      4 C9           0.5450    13.5370   -36.1390 c3         1 VVF       0.343300
      5 C1          -0.9930    12.0470   -34.8380 ca         1 VVF      -0.084000
      6 C5          -2.9580    12.9500   -33.7480 ca         1 VVF      -0.101000
      7 C6          -4.6120    15.4630   -33.3340 c          1 VVF       0.613100
      8 C4          -2.6510    14.2210   -34.2390 ca         1 VVF      -0.029000
      9 C3          -1.5120    14.4000   -35.0280 ca         1 VVF      -0.116000
     10 C2          -0.6970    13.3180   -35.3240 ca         1 VVF      -0.160300
     11 F2           0.8760    12.4550   -36.8750 f          1 VVF      -0.112000
     12 F            0.4280    14.5740   -36.9950 f          1 VVF      -0.112000
     13 F1           1.6240    13.8100   -35.3580 f          1 VVF      -0.112000
     14 C           -2.1260    11.8790   -34.0530 ca         1 VVF      -0.088000
     15 N           -3.4290    15.3650   -33.9880 ns         1 VVF      -0.142000
     16 O           -5.2070    14.5430   -32.8000 o          1 VVF      -0.558100
     17 H1          -4.4000    17.6400   -33.2410 hc         1 VVF       0.096200
     18 H2          -5.8400    16.9790   -32.4490 hc         1 VVF       0.096200
     19 H3          -0.3550    11.2060   -35.0700 ha         1 VVF       0.135000
     20 H4          -3.8330    12.8050   -33.1380 ha         1 VVF       0.155000
     21 H5          -1.2760    15.3840   -35.4100 ha         1 VVF       0.128000
     22 H6          -2.3700    10.8970   -33.6710 ha         1 VVF       0.127000
     23 H7          -3.0640    16.2210   -34.3800 hn         1 VVF       0.158000
@<TRIPOS>BOND
     1     1     3 3   
     2     2     3 1   
     3     2     7 1   
     4     2    17 1   
     5     2    18 1   
     6     4    10 1   
     7     4    11 1   
     8     4    12 1   
     9     4    13 1   
    10     5    10 ar  
    11     5    14 ar  
    12     5    19 1   
    13     6     8 ar  
    14     6    14 ar  
    15     6    20 1   
    16     7    15 1   
    17     7    16 2   
    18     8     9 ar  
    19     8    15 1   
    20     9    10 ar  
    21     9    21 1   
    22    14    22 1   
    23    15    23 1   
@<TRIPOS>SUBSTRUCTURE
     1 VVF         1 TEMP              0 ****  ****    0 ROOT
