@<TRIPOS>MOLECULE
VVG
   23    23     1     0     0
SMALL
abcg2


@<TRIPOS>ATOM
      1 N1         -11.9210    27.4130   -45.9620 nu         1 VVG      -0.902100
      2 C4         -10.2320    28.9730   -46.8110 ca         1 VVG      -0.088000
      3 C5          -9.9000    30.1530   -47.4650 ca         1 VVG      -0.110000
      4 C6         -10.9020    31.0090   -47.9140 ca         1 VVG      -0.083000
      5 C7         -12.2400    30.6840   -47.7160 ca         1 VVG      -0.128000
      6 C8         -12.5460    29.4950   -47.0840 ca         1 VVG       0.155000
      7 C1          -9.7990    25.1670   -45.2070 c3         1 VVG      -0.062100
      8 S1         -11.9190    25.9710   -46.7980 s6         1 VVG       1.195100
      9 O1         -12.8120    25.1070   -46.0570 o          1 VVG      -0.537500
     10 O2         -12.1740    26.2020   -48.2030 o          1 VVG      -0.537500
     11 C3         -11.5660    28.6220   -46.6200 ca         1 VVG       0.223000
     12 H6         -12.7440    27.4600   -45.3720 hn         1 VVG       0.505000
     13 H7          -9.4590    28.3180   -46.4340 ha         1 VVG       0.123000
     14 H8          -8.8600    30.4100   -47.6110 ha         1 VVG       0.124000
     15 H9         -10.6460    31.9330   -48.4140 ha         1 VVG       0.124000
     16 H10        -13.0400    31.3300   -48.0520 ha         1 VVG       0.138000
     17 H2          -8.7810    24.7760   -45.2080 hc         1 VVG       0.050700
     18 H1          -9.8070    26.1080   -44.6580 hc         1 VVG       0.050700
     19 H3         -10.4410    24.4530   -44.6920 hc         1 VVG       0.050700
     20 H4          -9.6230    26.0820   -47.1840 h1         1 VVG       0.098700
     21 H5         -10.2620    24.4360   -47.2110 h1         1 VVG       0.098700
     22 F1         -13.8450    29.1620   -46.8980 f          1 VVG      -0.177000
     23 C2         -10.2470    25.3690   -46.6440 c3         1 VVG      -0.310400
@<TRIPOS>BOND
     1     1     8 1   
     2     1    11 1   
     3     1    12 1   
     4     2     3 ar  
     5     2    11 ar  
     6     2    13 1   
     7     3     4 ar  
     8     3    14 1   
     9     4     5 ar  
    10     4    15 1   
    11     5     6 ar  
    12     5    16 1   
    13     6    11 ar  
    14     6    22 1   
    15     7    17 1   
    16     7    18 1   
    17     7    19 1   
    18     7    23 1   
    19     8     9 2   
    20     8    10 2   
    21     8    23 1   
    22    20    23 1   
    23    21    23 1   
@<TRIPOS>SUBSTRUCTURE
     1 VVG         1 TEMP              0 ****  ****    0 ROOT
