@<TRIPOS>MOLECULE
VVG
   23    23     1     0     0
SMALL
No Charge or Current Charge


@<TRIPOS>ATOM
      1 N1         -12.1180    27.3760   -46.0340 nu         1 VVG      -0.902100
      2 C4         -10.2970    28.8400   -46.7550 ca         1 VVG      -0.088000
      3 C5          -9.8570    30.0370   -47.3500 ca         1 VVG      -0.110000
      4 C6         -10.7890    30.9760   -47.8240 ca         1 VVG      -0.083000
      5 C7         -12.1640    30.7210   -47.6930 ca         1 VVG      -0.128000
      6 C8         -12.6030    29.5270   -47.0980 ca         1 VVG       0.155000
      7 C1          -9.6390    25.3490   -45.2910 c3         1 VVG      -0.062100
      8 S1         -12.0120    25.8630   -46.7090 s6         1 VVG       1.195100
      9 O1         -12.7520    24.9930   -45.7940 o          1 VVG      -0.537500
     10 O2         -12.4600    26.0270   -48.0930 o          1 VVG      -0.537500
     11 C3         -11.6730    28.5640   -46.6330 ca         1 VVG       0.223000
     12 H6         -13.0990    27.3910   -45.7840 hn         1 VVG       0.505000
     13 H7          -9.5620    28.1400   -46.3730 ha         1 VVG       0.123000
     14 H8          -8.7910    30.2380   -47.4390 ha         1 VVG       0.124000
     15 H9         -10.4450    31.9010   -48.2830 ha         1 VVG       0.124000
     16 H10        -12.8910    31.4470   -48.0500 ha         1 VVG       0.138000
     17 H2          -8.5780    25.0780   -45.3570 hc         1 VVG       0.050700
     18 H1          -9.7100    26.3190   -44.7840 hc         1 VVG       0.050700
     19 H3         -10.1410    24.5990   -44.6670 hc         1 VVG       0.050700
     20 H4          -9.7540    26.1240   -47.3450 h1         1 VVG       0.098700
     21 H5         -10.2240    24.4160   -47.1780 h1         1 VVG       0.098700
     22 F1         -13.9350    29.3030   -46.9780 f          1 VVG      -0.177000
     23 C2         -10.2700    25.4030   -46.7050 c3         1 VVG      -0.310400
@<TRIPOS>BOND
     1     1     8 1   
     2     1    11 1   
     3     1    12 1   
     4     2     3 ar  
     5     2    11 ar  
     6     2    13 1   
     7     3     4 ar  
     8     3    14 1   
     9     4     5 ar  
    10     4    15 1   
    11     5     6 ar  
    12     5    16 1   
    13     6    11 ar  
    14     6    22 1   
    15     7    17 1   
    16     7    18 1   
    17     7    19 1   
    18     7    23 1   
    19     8     9 2   
    20     8    10 2   
    21     8    23 1   
    22    20    23 1   
    23    21    23 1   
@<TRIPOS>SUBSTRUCTURE
     1 VVG         1 TEMP              0 ****  ****    0 ROOT
