@<TRIPOS>MOLECULE
VVH
   71    75     1     0     0
SMALL
No Charge or Current Charge


@<TRIPOS>ATOM
      1 N1         -21.6650    18.6940     9.8620 n7         1 VVH      -0.859400
      2 C1         -19.7330    17.4470    -3.4730 ca         1 VVH      -0.108000
      3 N2         -26.3750    16.4200     8.2380 nb         1 VVH      -0.666000
      4 C2         -19.4430    16.3390    -4.2850 ca         1 VVH       0.064100
      5 O2         -23.6810    20.1090     8.3090 oh         1 VVH      -0.678000
      6 C3         -18.6260    15.2940    -3.7860 ca         1 VVH       0.054100
      7 N3         -26.0480    11.9490    10.0410 n1         1 VVH      -0.438000
      8 O3         -21.9640    16.5790     7.7920 os         1 VVH      -0.348100
      9 C4         -18.1420    15.3510    -2.4700 ca         1 VVH      -0.088000
     10 O4         -18.2990    14.2140    -4.5820 os         1 VVH      -0.330100
     11 C5         -18.4480    16.4510    -1.6320 cp         1 VVH      -0.053000
     12 O5         -19.9540    16.2850    -5.5670 os         1 VVH      -0.328100
     13 C6         -19.2360    17.5030    -2.1590 ca         1 VVH      -0.084000
     14 C7         -17.9150    16.5100    -0.2390 cp         1 VVH       0.017000
     15 C8         -16.5160    16.6070    -0.0730 ca         1 VVH      -0.102000
     16 C9         -15.9400    16.6790     1.1990 ca         1 VVH      -0.092000
     17 C10        -16.7580    16.6690     2.3340 ca         1 VVH      -0.089000
     18 C11        -18.1640    16.5780     2.2160 ca         1 VVH      -0.061300
     19 C12        -18.7520    16.4670     0.9210 ca         1 VVH      -0.153300
     20 C13        -20.2760    16.2760     0.7970 c3         1 VVH       0.227600
     21 F1         -20.9000    17.4320     0.4780 f          1 VVH      -0.116000
     22 F2         -20.6170    15.3650    -0.1440 f          1 VVH      -0.116000
     23 C14        -19.0300    16.5800     3.4890 c3         1 VVH       0.205900
     24 C15        -18.8940    17.3390     5.8350 ca         1 VVH       0.181100
     25 C16        -20.1840    16.8630     6.1460 ca         1 VVH      -0.284000
     26 C17        -20.7010    17.0230     7.4500 ca         1 VVH       0.185100
     27 C18        -19.9250    17.6610     8.4420 ca         1 VVH      -0.186300
     28 C19        -18.6380    18.1330     8.1220 ca         1 VVH      -0.035000
     29 C20        -18.1300    17.9710     6.8240 ca         1 VVH      -0.177000
     30 C21        -20.4610    17.8450     9.8590 c3         1 VVH       0.224100
     31 C22        -21.4790    20.0970     9.4270 c3         1 VVH       0.157800
     32 C23        -22.8460    20.8130     9.2500 c3         1 VVH       0.157600
     33 C24        -22.8650    15.9970     6.8400 c3         1 VVH       0.217900
     34 C25        -24.1640    15.6820     7.5590 ca         1 VVH      -0.154300
     35 C26        -25.1930    16.6400     7.6130 ca         1 VVH       0.383900
     36 C27        -26.5570    15.2200     8.8420 ca         1 VVH       0.385900
     37 C28        -25.5820    14.2080     8.8440 ca         1 VVH      -0.076000
     38 C29        -24.3590    14.4400     8.1900 ca         1 VVH      -0.018000
     39 C30        -25.8440    12.9660     9.5050 cg         1 VVH       0.323000
     40 C31        -18.5370    14.3370    -6.0020 c6         1 VVH       0.118600
     41 C32        -19.9040    15.0120    -6.2490 c6         1 VVH       0.117600
     42 H30        -22.3100    18.2700     9.1820 hn         1 VVH       0.428000
     43 H20        -24.5260    20.6080     8.2510 ho         1 VVH       0.447000
     44 H2         -17.5240    14.5410    -2.0920 ha         1 VVH       0.130000
     45 H3         -19.4600    18.3690    -1.5410 ha         1 VVH       0.127000
     46 H4         -15.8730    16.6300    -0.9500 ha         1 VVH       0.125000
     47 H5         -14.8600    16.7510     1.3050 ha         1 VVH       0.120000
     48 H6         -16.2860    16.7290     3.3120 ha         1 VVH       0.135000
     49 H7         -20.7010    15.9190     1.7390 h2         1 VVH       0.048700
     50 H8         -19.9620    17.1250     3.2960 h1         1 VVH       0.044200
     51 H9         -19.2830    15.5420     3.7440 h1         1 VVH       0.044200
     52 H10        -20.7770    16.3720     5.3830 ha         1 VVH       0.118000
     53 H11        -18.0300    18.6280     8.8770 ha         1 VVH       0.118000
     54 H12        -17.1360    18.3380     6.5830 ha         1 VVH       0.132000
     55 H13        -20.6980    16.8540    10.2700 h1         1 VVH       0.056700
     56 H14        -19.6820    18.2790    10.5020 h1         1 VVH       0.056700
     57 H16        -20.8760    20.6510    10.1590 h1         1 VVH       0.038200
     58 H17        -20.9490    20.1400     8.4650 h1         1 VVH       0.038200
     59 H19        -22.6650    21.8400     8.9040 h1         1 VVH       0.028200
     60 H18        -23.3450    20.8760    10.2270 h1         1 VVH       0.028200
     61 H22        -22.4440    15.0740     6.4190 h1         1 VVH       0.046700
     62 H21        -23.0610    16.6940     6.0150 h1         1 VVH       0.046700
     63 H23        -25.0720    17.6130     7.1380 h4         1 VVH       0.044100
     64 H24        -27.5160    15.0730     9.3380 h4         1 VVH       0.034100
     65 H25        -23.5810    13.6780     8.1740 ha         1 VVH       0.132000
     66 H27        -18.5060    13.3420    -6.4660 h1         1 VVH       0.066700
     67 H26        -17.7410    14.9510    -6.4460 h1         1 VVH       0.066700
     68 H28        -20.0730    15.1670    -7.3230 h1         1 VVH       0.067700
     69 H29        -20.7060    14.3680    -5.8620 h1         1 VVH       0.067700
     70 O1         -18.3360    17.2110     4.5810 os         1 VVH      -0.343100
     71 H1         -20.3470    18.2570    -3.8600 ha         1 VVH       0.130000
@<TRIPOS>BOND
     1     1    30 1   
     2     1    31 1   
     3     1    42 1   
     4     2     4 ar  
     5     2    13 ar  
     6     2    71 1   
     7     3    35 ar  
     8     3    36 ar  
     9     4     6 ar  
    10     4    12 1   
    11     5    32 1   
    12     5    43 1   
    13     6     9 ar  
    14     6    10 1   
    15     7    39 3   
    16     8    26 1   
    17     8    33 1   
    18     9    11 ar  
    19     9    44 1   
    20    10    40 1   
    21    11    13 ar  
    22    11    14 1   
    23    12    41 1   
    24    13    45 1   
    25    14    15 ar  
    26    14    19 ar  
    27    15    16 ar  
    28    15    46 1   
    29    16    17 ar  
    30    16    47 1   
    31    17    18 ar  
    32    17    48 1   
    33    18    19 ar  
    34    18    23 1   
    35    19    20 1   
    36    20    21 1   
    37    20    22 1   
    38    20    49 1   
    39    23    50 1   
    40    23    51 1   
    41    23    70 1   
    42    24    25 ar  
    43    24    29 ar  
    44    24    70 1   
    45    25    26 ar  
    46    25    52 1   
    47    26    27 ar  
    48    27    28 ar  
    49    27    30 1   
    50    28    29 ar  
    51    28    53 1   
    52    29    54 1   
    53    30    55 1   
    54    30    56 1   
    55    31    32 1   
    56    31    57 1   
    57    31    58 1   
    58    32    59 1   
    59    32    60 1   
    60    33    34 1   
    61    33    61 1   
    62    33    62 1   
    63    34    35 ar  
    64    34    38 ar  
    65    35    63 1   
    66    36    37 ar  
    67    36    64 1   
    68    37    38 ar  
    69    37    39 1   
    70    38    65 1   
    71    40    41 1   
    72    40    66 1   
    73    40    67 1   
    74    41    68 1   
    75    41    69 1   
@<TRIPOS>SUBSTRUCTURE
     1 VVH         1 TEMP              0 ****  ****    0 ROOT
