@<TRIPOS>MOLECULE
VVH
   71    75     1     0     0
SMALL
abcg2


@<TRIPOS>ATOM
      1 N1         -21.4650    18.3190    10.0320 n7         1 VVH      -0.859400
      2 C1         -20.1140    16.8920    -3.5370 ca         1 VVH      -0.108000
      3 N2         -25.9350    16.7500     8.6230 nb         1 VVH      -0.666000
      4 C2         -19.5610    15.7830    -4.1620 ca         1 VVH       0.064100
      5 O2         -23.3940    20.1890     8.9450 oh         1 VVH      -0.678000
      6 C3         -18.5330    15.0820    -3.5250 ca         1 VVH       0.054100
      7 N3         -27.0280    12.1440     8.0570 n1         1 VVH      -0.438000
      8 O3         -21.8650    16.4450     7.6480 os         1 VVH      -0.348100
      9 C4         -18.1060    15.4800    -2.2660 ca         1 VVH      -0.088000
     10 O4         -17.9350    14.0110    -4.0990 os         1 VVH      -0.330100
     11 C5         -18.6840    16.5690    -1.6240 cp         1 VVH      -0.053000
     12 O5         -20.0340    15.4110    -5.3750 os         1 VVH      -0.328100
     13 C6         -19.6770    17.2880    -2.2820 ca         1 VVH      -0.084000
     14 C7         -18.1720    16.9690    -0.2890 cp         1 VVH       0.017000
     15 C8         -16.8780    17.4780    -0.2220 ca         1 VVH      -0.102000
     16 C9         -16.3290    17.8590     0.9890 ca         1 VVH      -0.092000
     17 C10        -17.0610    17.7280     2.1570 ca         1 VVH      -0.089000
     18 C11        -18.3510    17.2100     2.1250 ca         1 VVH      -0.061300
     19 C12        -18.9090    16.8310     0.8950 ca         1 VVH      -0.153300
     20 C13        -20.2990    16.2650     0.8740 c3         1 VVH       0.227600
     21 F1         -21.1880    17.1790     0.3790 f          1 VVH      -0.116000
     22 F2         -20.3770    15.1710     0.0710 f          1 VVH      -0.116000
     23 C14        -19.1410    17.0370     3.4010 c3         1 VVH       0.205900
     24 C15        -18.8880    17.3890     5.7330 ca         1 VVH       0.181100
     25 C16        -20.1720    16.9160     6.0000 ca         1 VVH      -0.284000
     26 C17        -20.6360    16.8960     7.3130 ca         1 VVH       0.185100
     27 C18        -19.8430    17.3450     8.3740 ca         1 VVH      -0.186300
     28 C19        -18.5680    17.8000     8.0670 ca         1 VVH      -0.035000
     29 C20        -18.0760    17.8260     6.7720 ca         1 VVH      -0.177000
     30 C21        -20.3740    17.3920     9.7900 c3         1 VVH       0.224100
     31 C22        -21.1800    19.6900     9.6590 c3         1 VVH       0.157800
     32 C23        -22.3890    20.5760     9.8630 c3         1 VVH       0.157600
     33 C24        -22.8090    16.1700     6.6290 c3         1 VVH       0.217900
     34 C25        -24.1150    15.8970     7.3110 ca         1 VVH      -0.154300
     35 C26        -24.7870    16.9180     7.9820 ca         1 VVH       0.383900
     36 C27        -26.4810    15.5450     8.6260 ca         1 VVH       0.385900
     37 C28        -25.8930    14.4570     7.9860 ca         1 VVH      -0.076000
     38 C29        -24.6840    14.6380     7.3170 ca         1 VVH      -0.018000
     39 C30        -26.5200    13.1780     8.0260 cg         1 VVH       0.323000
     40 C31        -18.2010    13.8630    -5.4840 c6         1 VVH       0.118600
     41 C32        -19.6660    14.0970    -5.7620 c6         1 VVH       0.117600
     42 H30        -22.2880    18.0020     9.5380 hn         1 VVH       0.428000
     43 H20        -24.2140    20.6300     9.1850 ho         1 VVH       0.447000
     44 H2         -17.3180    14.9130    -1.7830 ha         1 VVH       0.130000
     45 H3         -20.1130    18.1650    -1.8230 ha         1 VVH       0.127000
     46 H4         -16.3050    17.5810    -1.1350 ha         1 VVH       0.125000
     47 H5         -15.3240    18.2580     1.0260 ha         1 VVH       0.120000
     48 H6         -16.6150    18.0250     3.0950 ha         1 VVH       0.135000
     49 H7         -20.6650    15.9640     1.8540 h2         1 VVH       0.048700
     50 H8         -20.0690    17.6190     3.3520 h1         1 VVH       0.044200
     51 H9         -19.4220    15.9840     3.5240 h1         1 VVH       0.044200
     52 H10        -20.8040    16.5620     5.1970 ha         1 VVH       0.118000
     53 H11        -17.9370    18.1560     8.8730 ha         1 VVH       0.118000
     54 H12        -17.0780    18.1900     6.5650 ha         1 VVH       0.132000
     55 H13        -20.7070    16.4000    10.1050 h1         1 VVH       0.056700
     56 H14        -19.5450    17.6590    10.4520 h1         1 VVH       0.056700
     57 H16        -20.3720    20.0670    10.2940 h1         1 VVH       0.038200
     58 H17        -20.8320    19.8030     8.6210 h1         1 VVH       0.038200
     59 H19        -22.0900    21.6200     9.7090 h1         1 VVH       0.028200
     60 H18        -22.7350    20.4860    10.8990 h1         1 VVH       0.028200
     61 H22        -22.5070    15.3070     6.0280 h1         1 VVH       0.046700
     62 H21        -22.9110    17.0290     5.9570 h1         1 VVH       0.046700
     63 H23        -24.3680    17.9190     8.0020 h4         1 VVH       0.044100
     64 H24        -27.4210    15.4280     9.1540 h4         1 VVH       0.034100
     65 H25        -24.2030    13.8080     6.8140 ha         1 VVH       0.132000
     66 H27        -17.9180    12.8480    -5.7600 h1         1 VVH       0.066700
     67 H26        -17.5870    14.5610    -6.0630 h1         1 VVH       0.066700
     68 H28        -19.8710    14.0060    -6.8280 h1         1 VVH       0.067700
     69 H29        -20.2790    13.3620    -5.2290 h1         1 VVH       0.067700
     70 O1         -18.3610    17.4550     4.4910 os         1 VVH      -0.343100
     71 H1         -20.8940    17.4470    -4.0440 ha         1 VVH       0.130000
@<TRIPOS>BOND
     1     1    30 1   
     2     1    31 1   
     3     1    42 1   
     4     2     4 ar  
     5     2    13 ar  
     6     2    71 1   
     7     3    35 ar  
     8     3    36 ar  
     9     4     6 ar  
    10     4    12 1   
    11     5    32 1   
    12     5    43 1   
    13     6     9 ar  
    14     6    10 1   
    15     7    39 3   
    16     8    26 1   
    17     8    33 1   
    18     9    11 ar  
    19     9    44 1   
    20    10    40 1   
    21    11    13 ar  
    22    11    14 1   
    23    12    41 1   
    24    13    45 1   
    25    14    15 ar  
    26    14    19 ar  
    27    15    16 ar  
    28    15    46 1   
    29    16    17 ar  
    30    16    47 1   
    31    17    18 ar  
    32    17    48 1   
    33    18    19 ar  
    34    18    23 1   
    35    19    20 1   
    36    20    21 1   
    37    20    22 1   
    38    20    49 1   
    39    23    50 1   
    40    23    51 1   
    41    23    70 1   
    42    24    25 ar  
    43    24    29 ar  
    44    24    70 1   
    45    25    26 ar  
    46    25    52 1   
    47    26    27 ar  
    48    27    28 ar  
    49    27    30 1   
    50    28    29 ar  
    51    28    53 1   
    52    29    54 1   
    53    30    55 1   
    54    30    56 1   
    55    31    32 1   
    56    31    57 1   
    57    31    58 1   
    58    32    59 1   
    59    32    60 1   
    60    33    34 1   
    61    33    61 1   
    62    33    62 1   
    63    34    35 ar  
    64    34    38 ar  
    65    35    63 1   
    66    36    37 ar  
    67    36    64 1   
    68    37    38 ar  
    69    37    39 1   
    70    38    65 1   
    71    40    41 1   
    72    40    66 1   
    73    40    67 1   
    74    41    68 1   
    75    41    69 1   
@<TRIPOS>SUBSTRUCTURE
     1 VVH         1 TEMP              0 ****  ****    0 ROOT
