@<TRIPOS>MOLECULE
VVJ
   32    32     1     0     0
SMALL
No Charge or Current Charge


@<TRIPOS>ATOM
      1 N1          -1.7370    38.2250   -58.5730 n3         1 VVJ      -0.764500
      2 C4           0.4170    35.4400   -58.2780 c3         1 VVJ      -0.067900
      3 C5           1.9410    35.3910   -58.5280 c3         1 VVJ      -0.073400
      4 C6           2.4750    36.3890   -59.5760 c3         1 VVJ      -0.073400
      5 C7           2.1250    37.8740   -59.3240 c3         1 VVJ      -0.067900
      6 C8           0.6270    38.2050   -59.5250 c3         1 VVJ      -0.083900
      7 C1          -2.3910    37.2100   -59.4330 c3         1 VVJ       0.187100
      8 C2          -0.2900    38.0080   -58.2820 c3         1 VVJ       0.236500
      9 C3          -0.0460    36.6910   -57.4850 c3         1 VVJ      -0.083900
     10 S1          -2.2750    39.8530   -58.8120 s6         1 VVJ       1.216100
     11 O1          -3.6100    39.9460   -58.2130 o          1 VVJ      -0.536500
     12 O2          -1.2090    40.7370   -58.3320 o          1 VVJ      -0.536500
     13 C9          -2.3790    40.0580   -60.5860 c3         1 VVJ      -0.378100
     14 H2           0.1470    34.5530   -57.6920 hc         1 VVJ       0.040700
     15 H3           2.2050    34.3780   -58.8580 hc         1 VVJ       0.038450
     16 H4           2.4700    35.5460   -57.5790 hc         1 VVJ       0.038450
     17 H5           2.1100    36.0970   -60.5680 hc         1 VVJ       0.038450
     18 H6           3.5680    36.2920   -59.6140 hc         1 VVJ       0.038450
     19 H7           2.7040    38.4760   -60.0360 hc         1 VVJ       0.040700
     20 H8           2.4540    38.1800   -58.3230 hc         1 VVJ       0.040700
     21 H9           0.5650    39.2550   -59.8300 hc         1 VVJ       0.045950
     22 H10          0.2460    37.6250   -60.3740 hc         1 VVJ       0.045950
     23 H11         -2.2270    36.1960   -59.0490 h1         1 VVJ       0.050700
     24 H12         -3.4780    37.3670   -59.4610 h1         1 VVJ       0.050700
     25 H13         -2.0160    37.2520   -60.4630 h1         1 VVJ       0.050700
     26 H14          0.0210    38.7830   -57.5670 h1         1 VVJ       0.075700
     27 H15          0.6950    36.8940   -56.7030 hc         1 VVJ       0.045950
     28 H16         -0.9640    36.4390   -56.9400 hc         1 VVJ       0.045950
     29 H17         -1.4030    39.8100   -61.0120 h1         1 VVJ       0.099033
     30 H18         -3.1610    39.3910   -60.9600 h1         1 VVJ       0.099033
     31 H19         -2.6360    41.1040   -60.7750 h1         1 VVJ       0.099033
     32 H1          -0.1220    35.3550   -59.2290 hc         1 VVJ       0.040700
@<TRIPOS>BOND
     1     1     7 1   
     2     1     8 1   
     3     1    10 1   
     4     2     3 1   
     5     2     9 1   
     6     2    14 1   
     7     2    32 1   
     8     3     4 1   
     9     3    15 1   
    10     3    16 1   
    11     4     5 1   
    12     4    17 1   
    13     4    18 1   
    14     5     6 1   
    15     5    19 1   
    16     5    20 1   
    17     6     8 1   
    18     6    21 1   
    19     6    22 1   
    20     7    23 1   
    21     7    24 1   
    22     7    25 1   
    23     8     9 1   
    24     8    26 1   
    25     9    27 1   
    26     9    28 1   
    27    10    11 2   
    28    10    12 2   
    29    10    13 1   
    30    13    29 1   
    31    13    30 1   
    32    13    31 1   
@<TRIPOS>SUBSTRUCTURE
     1 VVJ         1 TEMP              0 ****  ****    0 ROOT
