@<TRIPOS>MOLECULE
VVJ
   32    32     1     0     0
SMALL
bcc


@<TRIPOS>ATOM
      1 N1          -1.7210    38.1640   -58.7550 n3         1 VVJ      -0.764500
      2 C4           0.4650    35.5110   -58.1010 c3         1 VVJ      -0.067900
      3 C5           1.9670    35.4700   -58.3650 c3         1 VVJ      -0.073400
      4 C6           2.4380    36.2620   -59.5770 c3         1 VVJ      -0.073400
      5 C7           2.0320    37.7320   -59.5990 c3         1 VVJ      -0.067900
      6 C8           0.5310    37.9620   -59.7990 c3         1 VVJ      -0.083900
      7 C1          -2.3820    37.1310   -59.5410 c3         1 VVJ       0.187100
      8 C2          -0.2740    38.0170   -58.5010 c3         1 VVJ       0.236500
      9 C3          -0.0320    36.8420   -57.5320 c3         1 VVJ      -0.083900
     10 S1          -2.4200    39.6480   -58.7060 s6         1 VVJ       1.246900
     11 O1          -3.8610    39.4500   -58.6210 o          1 VVJ      -0.607300
     12 O2          -1.7640    40.4160   -57.6560 o          1 VVJ      -0.607300
     13 C9          -2.0970    40.4640   -60.2550 c3         1 VVJ      -0.267300
     14 H2           0.2320    34.7390   -57.3620 hc         1 VVJ       0.040700
     15 H3           2.2760    34.4290   -58.4960 hc         1 VVJ       0.038450
     16 H4           2.4880    35.8290   -57.4700 hc         1 VVJ       0.038450
     17 H5           2.0580    35.7850   -60.4870 hc         1 VVJ       0.038450
     18 H6           3.5280    36.1940   -59.6350 hc         1 VVJ       0.038450
     19 H7           2.5630    38.2150   -60.4220 hc         1 VVJ       0.040700
     20 H8           2.3760    38.2360   -58.6890 hc         1 VVJ       0.040700
     21 H9           0.3860    38.9070   -60.3290 hc         1 VVJ       0.045950
     22 H10          0.1390    37.1890   -60.4660 hc         1 VVJ       0.045950
     23 H11         -2.0280    36.1610   -59.2010 h1         1 VVJ       0.050700
     24 H12         -3.4560    37.1550   -59.3790 h1         1 VVJ       0.050700
     25 H13         -2.1870    37.2090   -60.6140 h1         1 VVJ       0.050700
     26 H14          0.0310    38.9200   -57.9730 h1         1 VVJ       0.075700
     27 H15          0.6980    37.1700   -56.7850 hc         1 VVJ       0.045950
     28 H16         -0.9560    36.6820   -56.9730 hc         1 VVJ       0.045950
     29 H17         -1.0280    40.6190   -60.3740 h1         1 VVJ       0.099033
     30 H18         -2.4850    39.8610   -61.0740 h1         1 VVJ       0.099033
     31 H19         -2.6080    41.4260   -60.2370 h1         1 VVJ       0.099033
     32 H1          -0.0810    35.2250   -59.0060 hc         1 VVJ       0.040700
@<TRIPOS>BOND
     1     1     7 1   
     2     1     8 1   
     3     1    10 1   
     4     2     3 1   
     5     2     9 1   
     6     2    14 1   
     7     2    32 1   
     8     3     4 1   
     9     3    15 1   
    10     3    16 1   
    11     4     5 1   
    12     4    17 1   
    13     4    18 1   
    14     5     6 1   
    15     5    19 1   
    16     5    20 1   
    17     6     8 1   
    18     6    21 1   
    19     6    22 1   
    20     7    23 1   
    21     7    24 1   
    22     7    25 1   
    23     8     9 1   
    24     8    26 1   
    25     9    27 1   
    26     9    28 1   
    27    10    11 2   
    28    10    12 2   
    29    10    13 1   
    30    13    29 1   
    31    13    30 1   
    32    13    31 1   
@<TRIPOS>SUBSTRUCTURE
     1 VVJ         1 TEMP              0 ****  ****    0 ROOT
