@<TRIPOS>MOLECULE
VVK
   29    29     1     0     0
SMALL
No Charge or Current Charge


@<TRIPOS>ATOM
      1 C7          50.6000    24.0530    24.0410 ca         1 VVK      -0.179000
      2 C8          51.8490    24.6850    23.9220 ca         1 VVK      -0.156000
      3 C9          53.0390    23.9190    23.9670 ca         1 VVK       0.018100
      4 O1          53.5820    20.8890    21.2260 o          1 VVK      -0.713500
      5 C1          54.4060    20.4520    23.4880 c3         1 VVK       0.089200
      6 C5          51.7000    21.8950    24.2560 ca         1 VVK      -0.162000
      7 C6          50.5240    22.6620    24.2110 ca         1 VVK      -0.093000
      8 C4          52.9590    22.5100    24.1240 ca         1 VVK       0.359000
      9 C3          53.4510    20.1850    22.2220 c          1 VVK       0.722000
     10 C2          54.2780    19.3240    24.5530 c3         1 VVK      -0.079100
     11 O           52.6340    19.2710    22.2670 o          1 VVK      -0.713500
     12 C           55.8800    20.5080    23.0030 c3         1 VVK      -0.079100
     13 N           54.1430    21.7570    24.1820 nu         1 VVK      -0.909200
     14 O2          54.2920    24.5130    23.8620 os         1 VVK      -0.357100
     15 C10         54.4630    25.9320    23.6960 c3         1 VVK       0.162900
     16 H1          49.6880    24.6440    24.0070 ha         1 VVK       0.088000
     17 H2          51.8740    25.7640    23.7980 ha         1 VVK       0.088000
     18 H3          51.6310    20.8230    24.3980 ha         1 VVK       0.154000
     19 H4          49.5540    22.1780    24.3100 ha         1 VVK       0.096000
     20 H5          54.9600    19.4980    25.3950 hc         1 VVK       0.022367
     21 H6          53.2600    19.2630    24.9540 hc         1 VVK       0.022367
     22 H7          54.5290    18.3500    24.1170 hc         1 VVK       0.022367
     23 H9          56.5710    20.6360    23.8460 hc         1 VVK       0.022367
     24 H10         56.1490    19.5790    22.4850 hc         1 VVK       0.022367
     25 H11         56.0390    21.3410    22.3070 hc         1 VVK       0.022367
     26 H12         54.9490    22.3810    24.2120 hn         1 VVK       0.460000
     27 H13         55.5300    26.1810    23.6350 h1         1 VVK       0.023033
     28 H14         53.9790    26.2770    22.7730 h1         1 VVK       0.023033
     29 H15         54.0340    26.4780    24.5460 h1         1 VVK       0.023033
@<TRIPOS>BOND
     1     1     2 ar  
     2     1     7 ar  
     3     1    16 1   
     4     2     3 ar  
     5     2    17 1   
     6     3     8 ar  
     7     3    14 1   
     8     4     9 1   
     9     5     9 1   
    10     5    10 1   
    11     5    12 1   
    12     5    13 1   
    13     6     7 ar  
    14     6     8 ar  
    15     6    18 1   
    16     7    19 1   
    17     8    13 1   
    18     9    11 1   
    19    10    20 1   
    20    10    21 1   
    21    10    22 1   
    22    12    23 1   
    23    12    24 1   
    24    12    25 1   
    25    13    26 1   
    26    14    15 1   
    27    15    27 1   
    28    15    28 1   
    29    15    29 1   
@<TRIPOS>SUBSTRUCTURE
     1 VVK         1 TEMP              0 ****  ****    0 ROOT
