@<TRIPOS>MOLECULE
VVK
   29    29     1     0     0
SMALL
abcg2


@<TRIPOS>ATOM
      1 C7          50.6480    24.0020    24.2230 ca         1 VVK      -0.179000
      2 C8          51.8770    24.6620    24.1540 ca         1 VVK      -0.156000
      3 C9          53.0360    23.9620    23.8790 ca         1 VVK       0.018100
      4 O1          53.4280    20.3890    21.1560 o          1 VVK      -0.713500
      5 C1          54.3830    20.4840    23.3500 c3         1 VVK       0.089200
      6 C5          51.7700    21.9230    23.7450 ca         1 VVK      -0.162000
      7 C6          50.6050    22.6380    24.0160 ca         1 VVK      -0.093000
      8 C4          53.0110    22.5580    23.6660 ca         1 VVK       0.359000
      9 C3          53.4890    19.8090    22.2550 c          1 VVK       0.722000
     10 C2          54.1920    19.8750    24.7420 c3         1 VVK      -0.079100
     11 O           52.9550    18.7240    22.5600 o          1 VVK      -0.713500
     12 C           55.8370    20.2580    22.9190 c3         1 VVK      -0.079100
     13 N           54.1880    21.9250    23.3680 nu         1 VVK      -0.909200
     14 O2          54.2670    24.5230    23.7900 os         1 VVK      -0.357100
     15 C10         54.3950    25.9090    24.0100 c3         1 VVK       0.162900
     16 H1          49.7480    24.5630    24.4380 ha         1 VVK       0.088000
     17 H2          51.9080    25.7310    24.3180 ha         1 VVK       0.088000
     18 H3          51.6980    20.8540    23.6070 ha         1 VVK       0.154000
     19 H4          49.6640    22.1060    24.0680 ha         1 VVK       0.096000
     20 H5          54.8650    20.3590    25.4530 hc         1 VVK       0.022367
     21 H6          53.1750    19.9940    25.1160 hc         1 VVK       0.022367
     22 H7          54.4190    18.8100    24.7420 hc         1 VVK       0.022367
     23 H9          56.5290    20.6930    23.6450 hc         1 VVK       0.022367
     24 H10         56.0580    19.1930    22.8540 hc         1 VVK       0.022367
     25 H11         56.0350    20.7080    21.9470 hc         1 VVK       0.022367
     26 H12         55.0150    22.4570    23.5870 hn         1 VVK       0.460000
     27 H13         55.4500    26.1470    23.8940 h1         1 VVK       0.023033
     28 H14         53.8220    26.4940    23.2860 h1         1 VVK       0.023033
     29 H15         54.0800    26.1960    25.0170 h1         1 VVK       0.023033
@<TRIPOS>BOND
     1     1     2 ar  
     2     1     7 ar  
     3     1    16 1   
     4     2     3 ar  
     5     2    17 1   
     6     3     8 ar  
     7     3    14 1   
     8     4     9 1   
     9     5     9 1   
    10     5    10 1   
    11     5    12 1   
    12     5    13 1   
    13     6     7 ar  
    14     6     8 ar  
    15     6    18 1   
    16     7    19 1   
    17     8    13 1   
    18     9    11 1   
    19    10    20 1   
    20    10    21 1   
    21    10    22 1   
    22    12    23 1   
    23    12    24 1   
    24    12    25 1   
    25    13    26 1   
    26    14    15 1   
    27    15    27 1   
    28    15    28 1   
    29    15    29 1   
@<TRIPOS>SUBSTRUCTURE
     1 VVK         1 TEMP              0 ****  ****    0 ROOT
