@<TRIPOS>MOLECULE
VVL
   24    25     1     0     0
SMALL
abcg2


@<TRIPOS>ATOM
      1 C01          3.4840     6.4210    18.2580 cc         1 VVL       0.353300
      2 C02          4.0560     5.0790    18.1370 cs         1 VVL       0.222100
      3 C07          3.5120     6.9470    20.7230 ca         1 VVL      -0.080300
      4 C10          3.0070     6.4950    21.9410 ca         1 VVL      -0.099500
      5 C11          4.7710     7.5470    20.6970 ca         1 VVL      -0.099500
      6 C13          3.7440     6.6360    23.1110 ca         1 VVL      -0.105500
      7 C15          5.0030     7.2290    23.0770 ca         1 VVL      -0.104000
      8 C03          2.6830     6.8140    19.4600 c3         1 VVL      -0.050400
      9 N04          3.6560     7.3130    17.3360 nd         1 VVL      -0.411300
     10 N05          4.7990     4.8960    17.0010 ns         1 VVL      -0.329500
     11 S06          3.8480     3.8610    19.2310 s          1 VVL      -0.390400
     12 N08          4.3850     7.0010    16.2530 ns         1 VVL      -0.296400
     13 C09          4.9980     5.8180    16.0120 cs         1 VVL       0.395400
     14 S12          5.9010     5.5160    14.6480 s          1 VVL      -0.512400
     15 C14          5.5140     7.6840    21.8660 ca         1 VVL      -0.105500
     16 H20          2.0330     6.0200    21.9690 ha         1 VVL       0.111500
     17 H21          5.1800     7.9050    19.7600 ha         1 VVL       0.111500
     18 H22          3.3370     6.2780    24.0490 ha         1 VVL       0.115000
     19 H24          5.5810     7.3330    23.9860 ha         1 VVL       0.115000
     20 H16          2.2000     7.7650    19.2300 hc         1 VVL       0.080700
     21 H17          1.8990     6.0730    19.6240 hc         1 VVL       0.080700
     22 H18          5.2260     3.9870    16.8610 hn         1 VVL       0.377500
     23 H19          4.4780     7.7400    15.5690 hn         1 VVL       0.506000
     24 H23          6.4930     8.1460    21.8280 ha         1 VVL       0.115000
@<TRIPOS>BOND
     1     1     2 1   
     2     1     8 1   
     3     1     9 2   
     4     2    10 1   
     5     2    11 2   
     6     3     4 ar  
     7     3     5 ar  
     8     3     8 1   
     9     4     6 ar  
    10     4    16 1   
    11     5    15 ar  
    12     5    17 1   
    13     6     7 ar  
    14     6    18 1   
    15     7    15 ar  
    16     7    19 1   
    17     8    20 1   
    18     8    21 1   
    19     9    12 1   
    20    10    13 1   
    21    10    22 1   
    22    12    13 1   
    23    12    23 1   
    24    13    14 2   
    25    15    24 1   
@<TRIPOS>SUBSTRUCTURE
     1 VVL         1 TEMP              0 ****  ****    0 ROOT
