@<TRIPOS>MOLECULE
VVL
   24    25     1     0     0
SMALL
No Charge or Current Charge


@<TRIPOS>ATOM
      1 C01          3.5040     6.4970    18.2460 cc         1 VVL       0.353300
      2 C02          3.7840     5.0660    18.1020 cs         1 VVL       0.222100
      3 C07          3.5230     7.0540    20.7220 ca         1 VVL      -0.080300
      4 C10          3.2620     6.2050    21.8160 ca         1 VVL      -0.099500
      5 C11          4.5560     8.0070    20.8200 ca         1 VVL      -0.099500
      6 C13          4.0270     6.3050    22.9910 ca         1 VVL      -0.105500
      7 C15          5.0570     7.2560    23.0810 ca         1 VVL      -0.104000
      8 C03          2.6980     6.9500    19.4420 c3         1 VVL      -0.050400
      9 N04          3.9480     7.3830    17.3470 nd         1 VVL      -0.411300
     10 N05          4.5290     4.7310    16.9930 ns         1 VVL      -0.329500
     11 S06          3.2890     3.8360    19.1310 s          1 VVL      -0.390400
     12 N08          4.6870     6.9140    16.2750 ns         1 VVL      -0.296400
     13 C09          5.0060     5.5970    16.0520 cs         1 VVL       0.395400
     14 S12          5.9010     5.0900    14.7400 s          1 VVL      -0.512400
     15 C14          5.3210     8.1080    21.9950 ca         1 VVL      -0.105500
     16 H20          2.4680     5.4640    21.7580 ha         1 VVL       0.111500
     17 H21          4.7670     8.6720    19.9850 ha         1 VVL       0.111500
     18 H22          3.8210     5.6450    23.8310 ha         1 VVL       0.115000
     19 H24          5.6490     7.3340    23.9910 ha         1 VVL       0.115000
     20 H16          2.2560     7.9290    19.2240 hc         1 VVL       0.080700
     21 H17          1.8410     6.2820    19.5840 hc         1 VVL       0.080700
     22 H18          4.7440     3.7510    16.8570 hn         1 VVL       0.377500
     23 H19          5.0330     7.5820    15.5800 hn         1 VVL       0.506000
     24 H23          6.1170     8.8460    22.0640 ha         1 VVL       0.115000
@<TRIPOS>BOND
     1     1     2 1   
     2     1     8 1   
     3     1     9 2   
     4     2    10 1   
     5     2    11 2   
     6     3     4 ar  
     7     3     5 ar  
     8     3     8 1   
     9     4     6 ar  
    10     4    16 1   
    11     5    15 ar  
    12     5    17 1   
    13     6     7 ar  
    14     6    18 1   
    15     7    15 ar  
    16     7    19 1   
    17     8    20 1   
    18     8    21 1   
    19     9    12 1   
    20    10    13 1   
    21    10    22 1   
    22    12    13 1   
    23    12    23 1   
    24    13    14 2   
    25    15    24 1   
@<TRIPOS>SUBSTRUCTURE
     1 VVL         1 TEMP              0 ****  ****    0 ROOT
