@<TRIPOS>MOLECULE
VVM
   29    30     1     0     0
SMALL
No Charge or Current Charge


@<TRIPOS>ATOM
      1 N1           4.3890    18.6980   -27.9030 nv         1 VVM      -1.092000
      2 C4           5.5080    15.1530   -29.7940 ca         1 VVM      -0.384500
      3 C5           4.6320    15.1170   -28.6930 ca         1 VVM       0.039500
      4 C6           4.2580    16.3140   -28.0610 ca         1 VVM      -0.218000
      5 C7           3.7440    13.7940   -32.2840 ca         1 VVM       0.225000
      6 C8           4.1540    14.9470   -32.9840 ca         1 VVM      -0.106000
      7 C10          1.9700    15.1060   -34.0490 ca         1 VVM      -0.110000
      8 C1           4.7550    17.5380   -28.5230 ca         1 VVM       0.373000
      9 C2           5.6260    17.5760   -29.6160 ca         1 VVM      -0.218000
     10 C3           6.0080    16.3860   -30.2570 ca         1 VVM       0.039500
     11 O1           6.9520    13.8710   -31.6640 o          1 VVM      -0.535000
     12 O2           6.1540    12.5760   -29.5970 o          1 VVM      -0.535000
     13 N2           4.5840    13.1140   -31.4010 nu         1 VVM      -0.849100
     14 C9           3.2700    15.6020   -33.8610 ca         1 VVM      -0.102000
     15 C11          1.5550    13.9540   -33.3620 ca         1 VVM      -0.102000
     16 C12          2.4410    13.3020   -32.4850 ca         1 VVM      -0.106000
     17 H1           3.9180    18.6500   -27.0020 hn         1 VVM       0.473000
     18 H2           4.8950    19.5560   -28.1140 hn         1 VVM       0.473000
     19 H3           4.2380    14.1690   -28.3270 ha         1 VVM       0.133500
     20 H4           3.5810    16.2840   -27.2120 ha         1 VVM       0.117000
     21 H5           5.1560    15.3430   -32.8630 ha         1 VVM       0.129000
     22 H6           1.2860    15.6120   -34.7280 ha         1 VVM       0.115000
     23 H7           6.0110    18.5260   -29.9760 ha         1 VVM       0.117000
     24 H8           6.6880    16.4310   -31.1070 ha         1 VVM       0.133500
     25 H9           4.1920    12.3620   -30.8510 hn         1 VVM       0.478000
     26 H10          3.5960    16.4910   -34.3970 ha         1 VVM       0.118000
     27 H11          0.5490    13.5660   -33.5070 ha         1 VVM       0.118000
     28 H12          2.1090    12.4110   -31.9580 ha         1 VVM       0.129000
     29 S1           5.9730    13.6230   -30.6030 sy         1 VVM       1.144600
@<TRIPOS>BOND
     1     1     8 1   
     2     1    17 1   
     3     1    18 1   
     4     2     3 ar  
     5     2    10 ar  
     6     2    29 1   
     7     3     4 ar  
     8     3    19 1   
     9     4     8 ar  
    10     4    20 1   
    11     5     6 ar  
    12     5    13 1   
    13     5    16 ar  
    14     6    14 ar  
    15     6    21 1   
    16     7    14 ar  
    17     7    15 ar  
    18     7    22 1   
    19     8     9 ar  
    20     9    10 ar  
    21     9    23 1   
    22    10    24 1   
    23    11    29 2   
    24    12    29 2   
    25    13    25 1   
    26    13    29 1   
    27    14    26 1   
    28    15    16 ar  
    29    15    27 1   
    30    16    28 1   
@<TRIPOS>SUBSTRUCTURE
     1 VVM         1 TEMP              0 ****  ****    0 ROOT
