@<TRIPOS>MOLECULE
VVM
   29    30     1     0     0
SMALL
abcg2


@<TRIPOS>ATOM
      1 N1           3.7000    18.2990   -27.7510 nv         1 VVM      -1.092000
      2 C4           5.4230    15.1310   -29.8110 ca         1 VVM      -0.384500
      3 C5           4.9800    14.9530   -28.5010 ca         1 VVM       0.039500
      4 C6           4.4240    16.0090   -27.8130 ca         1 VVM      -0.218000
      5 C7           3.9760    13.8360   -32.3460 ca         1 VVM       0.225000
      6 C8           4.4340    14.0840   -33.6350 ca         1 VVM      -0.106000
      7 C10          2.4490    15.3740   -34.0840 ca         1 VVM      -0.110000
      8 C1           4.2860    17.2710   -28.4170 ca         1 VVM       0.373000
      9 C2           4.7340    17.4290   -29.7400 ca         1 VVM      -0.218000
     10 C3           5.2910    16.3730   -30.4270 ca         1 VVM       0.039500
     11 O1           6.9230    14.2680   -31.7610 o          1 VVM      -0.535000
     12 O2           6.5500    12.7670   -29.7730 o          1 VVM      -0.535000
     13 N2           4.7540    13.0380   -31.4650 nu         1 VVM      -0.849100
     14 C9           3.6710    14.8590   -34.4970 ca         1 VVM      -0.102000
     15 C11          1.9900    15.1150   -32.8000 ca         1 VVM      -0.102000
     16 C12          2.7560    14.3580   -31.9260 ca         1 VVM      -0.106000
     17 H1           3.6290    18.2390   -26.7500 hn         1 VVM       0.473000
     18 H2           3.8310    19.2320   -28.1020 hn         1 VVM       0.473000
     19 H3           5.0770    13.9950   -28.0080 ha         1 VVM       0.133500
     20 H4           4.0930    15.8630   -26.7920 ha         1 VVM       0.117000
     21 H5           5.3710    13.6590   -33.9660 ha         1 VVM       0.129000
     22 H6           1.8540    15.9710   -34.7630 ha         1 VVM       0.115000
     23 H7           4.6430    18.3930   -30.2240 ha         1 VVM       0.117000
     24 H8           5.6290    16.5270   -31.4440 ha         1 VVM       0.133500
     25 H9           4.1950    12.5290   -30.7860 hn         1 VVM       0.478000
     26 H10          4.0280    15.0500   -35.5010 ha         1 VVM       0.118000
     27 H11          1.0380    15.5100   -32.4720 ha         1 VVM       0.118000
     28 H12          2.4060    14.1710   -30.9180 ha         1 VVM       0.129000
     29 S1           6.0580    13.7680   -30.7060 sy         1 VVM       1.144600
@<TRIPOS>BOND
     1     1     8 1   
     2     1    17 1   
     3     1    18 1   
     4     2     3 ar  
     5     2    10 ar  
     6     2    29 1   
     7     3     4 ar  
     8     3    19 1   
     9     4     8 ar  
    10     4    20 1   
    11     5     6 ar  
    12     5    13 1   
    13     5    16 ar  
    14     6    14 ar  
    15     6    21 1   
    16     7    14 ar  
    17     7    15 ar  
    18     7    22 1   
    19     8     9 ar  
    20     9    10 ar  
    21     9    23 1   
    22    10    24 1   
    23    11    29 2   
    24    12    29 2   
    25    13    25 1   
    26    13    29 1   
    27    14    26 1   
    28    15    16 ar  
    29    15    27 1   
    30    16    28 1   
@<TRIPOS>SUBSTRUCTURE
     1 VVM         1 TEMP              0 ****  ****    0 ROOT
