@<TRIPOS>MOLECULE
VVN
   48    50     1     0     0
SMALL
abcg2


@<TRIPOS>ATOM
      1 N1          43.5770    -2.6930    21.4760 n          1 VVN      -0.407800
      2 C2          43.9910    -3.3890    22.5600 c          1 VVN       0.602100
      3 N3          47.6870    -4.7460    25.9980 n1         1 VVN      -0.477000
      4 C4          43.7500    -5.8770    22.3240 c3         1 VVN      -0.085100
      5 C5          43.7880    -3.1180    20.1050 c3         1 VVN       0.111000
      6 C6          45.0500    -2.5760    19.4670 c3         1 VVN       0.141600
      7 C8          45.8970     0.0350    17.6140 ca         1 VVN      -0.119000
      8 C9          46.9460     0.7510    17.0540 ca         1 VVN      -0.097000
      9 C10         48.1280     0.9250    17.7600 ca         1 VVN      -0.108000
     10 C11         48.2590     0.3900    19.0350 ca         1 VVN      -0.099000
     11 C12         47.2090    -0.3210    19.5890 ca         1 VVN       0.065100
     12 C13         46.7420    -0.3340    21.8880 cc         1 VVN       0.186100
     13 C1          42.8620    -1.4500    21.7090 c3         1 VVN       0.097300
     14 C14         46.1320     0.8800    21.9200 cd         1 VVN      -0.207000
     15 C15         45.5410     1.3230    23.1400 cd         1 VVN      -0.098000
     16 C16         45.5800     0.5720    24.2600 cc         1 VVN      -0.148000
     17 C17         46.7930    -1.1400    23.0580 cc         1 VVN      -0.138000
     18 C18         47.3360    -2.3770    23.3320 cd         1 VVN      -0.191000
     19 C19         47.0640    -2.6240    24.6950 cd         1 VVN      -0.038700
     20 C20         47.4110    -3.7880    25.4170 ch         1 VVN       0.324700
     21 C21         46.3700    -1.5480    25.2180 cc         1 VVN      -0.167100
     22 C3          44.7240    -4.6990    22.3540 c3         1 VVN      -0.157400
     23 C7          46.0170    -0.5040    18.8870 ca         1 VVN       0.095100
     24 N2          46.2110    -0.6510    24.2190 na         1 VVN       0.182100
     25 O1          43.7360    -2.9970    23.6920 o          1 VVN      -0.604100
     26 O2          44.9720    -1.1540    19.4560 os         1 VVN      -0.359100
     27 H6          44.2950    -6.8170    22.2440 hc         1 VVN       0.039367
     28 H5          43.1540    -5.9140    23.2350 hc         1 VVN       0.039367
     29 H20         43.0650    -5.8190    21.4770 hc         1 VVN       0.039367
     30 H7          42.9210    -2.8120    19.5170 h1         1 VVN       0.058200
     31 H8          43.8190    -4.2050    20.0380 h1         1 VVN       0.058200
     32 H10         45.1240    -2.9590    18.4430 h1         1 VVN       0.043200
     33 H9          45.9330    -2.9140    20.0160 h1         1 VVN       0.043200
     34 H11         44.9710    -0.1030    17.0700 ha         1 VVN       0.128000
     35 H12         46.8390     1.1690    16.0620 ha         1 VVN       0.121000
     36 H13         48.9470     1.4820    17.3250 ha         1 VVN       0.122000
     37 H14         49.1730     0.5190    19.5990 ha         1 VVN       0.133000
     38 H2          41.9870    -1.6080    22.3380 h1         1 VVN       0.041700
     39 H1          43.4970    -0.7020    22.1870 h1         1 VVN       0.041700
     40 H3          42.5280    -1.0470    20.7580 h1         1 VVN       0.041700
     41 H15         46.0880     1.5160    21.0460 ha         1 VVN       0.134000
     42 H16         45.0490     2.2840    23.1740 ha         1 VVN       0.128000
     43 H17         45.1510     0.8630    25.2070 h4         1 VVN       0.148000
     44 H18         47.8610    -3.0230    22.6490 ha         1 VVN       0.217000
     45 H19         45.9860    -1.3740    26.2090 h4         1 VVN       0.234000
     46 H21         45.4040    -4.8140    23.1980 hc         1 VVN       0.062700
     47 H4          45.3420    -4.7000    21.4560 hc         1 VVN       0.062700
     48 O3          47.3630    -0.8940    20.8260 os         1 VVN      -0.238200
@<TRIPOS>BOND
     1     1     2 1   
     2     1     5 1   
     3     1    13 1   
     4     2    22 1   
     5     2    25 2   
     6     3    20 3   
     7     4    22 1   
     8     4    27 1   
     9     4    28 1   
    10     4    29 1   
    11     5     6 1   
    12     5    30 1   
    13     5    31 1   
    14     6    26 1   
    15     6    32 1   
    16     6    33 1   
    17     7     8 ar  
    18     7    23 ar  
    19     7    34 1   
    20     8     9 ar  
    21     8    35 1   
    22     9    10 ar  
    23     9    36 1   
    24    10    11 ar  
    25    10    37 1   
    26    11    23 ar  
    27    11    48 1   
    28    12    14 2   
    29    12    17 1   
    30    12    48 1   
    31    13    38 1   
    32    13    39 1   
    33    13    40 1   
    34    14    15 1   
    35    14    41 1   
    36    15    16 2   
    37    15    42 1   
    38    16    24 1   
    39    16    43 1   
    40    17    18 2   
    41    17    24 1   
    42    18    19 1   
    43    18    44 1   
    44    19    20 1   
    45    19    21 2   
    46    21    24 1   
    47    21    45 1   
    48    22    46 1   
    49    22    47 1   
    50    23    26 1   
@<TRIPOS>SUBSTRUCTURE
     1 VVN         1 TEMP              0 ****  ****    0 ROOT
