@<TRIPOS>MOLECULE
VVN
   48    50     1     0     0
SMALL
No Charge or Current Charge


@<TRIPOS>ATOM
      1 N1          43.6890    -2.6720    21.9030 n          1 VVN      -0.407800
      2 C2          43.7440    -3.7070    22.8710 c          1 VVN       0.602100
      3 N3          47.4740    -4.9010    25.2080 n1         1 VVN      -0.477000
      4 C4          43.4410    -6.1370    22.1440 c3         1 VVN      -0.085100
      5 C5          43.9110    -2.9250    20.4540 c3         1 VVN       0.111000
      6 C6          45.3290    -2.6000    19.9280 c3         1 VVN       0.141600
      7 C8          46.0090    -0.4760    17.8800 ca         1 VVN      -0.119000
      8 C9          46.8000     0.1780    16.9220 ca         1 VVN      -0.097000
      9 C10         48.0000     0.7920    17.3090 ca         1 VVN      -0.108000
     10 C11         48.4020     0.7620    18.6540 ca         1 VVN      -0.099000
     11 C12         47.6100     0.1330    19.6350 ca         1 VVN       0.065100
     12 C13         47.1590     0.2380    21.8860 cc         1 VVN       0.186100
     13 C1          43.0600    -1.3760    22.2450 c3         1 VVN       0.097300
     14 C14         46.4730     1.4250    21.9940 cd         1 VVN      -0.207000
     15 C15         45.5220     1.5570    23.0830 cd         1 VVN      -0.098000
     16 C16         45.2810     0.5500    24.0300 cc         1 VVN      -0.148000
     17 C17         46.9310    -0.7720    22.8440 cc         1 VVN      -0.138000
     18 C18         47.4930    -2.0040    23.0340 cd         1 VVN      -0.191000
     19 C19         46.8920    -2.5870    24.1970 cd         1 VVN      -0.038700
     20 C20         47.2000    -3.8570    24.7610 ch         1 VVN       0.324700
     21 C21         45.9570    -1.7010    24.7100 cc         1 VVN      -0.167100
     22 C3          44.4510    -5.0360    22.5380 c3         1 VVN      -0.157400
     23 C7          46.4040    -0.5190    19.2330 ca         1 VVN       0.095100
     24 N2          46.0150    -0.6270    23.8400 na         1 VVN       0.182100
     25 O1          43.2650    -3.5440    23.9860 o          1 VVN      -0.604100
     26 O2          45.5980    -1.1980    20.1210 os         1 VVN      -0.359100
     27 H6          43.9650    -7.0710    21.9100 hc         1 VVN       0.039367
     28 H5          42.7440    -6.3340    22.9680 hc         1 VVN       0.039367
     29 H20         42.8570    -5.8420    21.2640 hc         1 VVN       0.039367
     30 H7          43.1940    -2.3220    19.8810 h1         1 VVN       0.058200
     31 H8          43.6780    -3.9690    20.2180 h1         1 VVN       0.058200
     32 H10         45.3670    -2.8690    18.8650 h1         1 VVN       0.043200
     33 H9          46.0790    -3.2060    20.4520 h1         1 VVN       0.043200
     34 H11         45.0810    -0.9490    17.5690 ha         1 VVN       0.128000
     35 H12         46.4850     0.2040    15.8810 ha         1 VVN       0.121000
     36 H13         48.6200     1.2910    16.5660 ha         1 VVN       0.122000
     37 H14         49.3350     1.2380    18.9450 ha         1 VVN       0.133000
     38 H2          41.9820    -1.4270    22.0460 h1         1 VVN       0.041700
     39 H1          43.2150    -1.1340    23.3030 h1         1 VVN       0.041700
     40 H3          43.4980    -0.5730    21.6380 h1         1 VVN       0.041700
     41 H15         46.6450     2.2380    21.2970 ha         1 VVN       0.134000
     42 H16         44.9760     2.4920    23.1790 ha         1 VVN       0.128000
     43 H17         44.5950     0.6040    24.8650 h4         1 VVN       0.148000
     44 H18         48.2700    -2.4520    22.4170 ha         1 VVN       0.217000
     45 H19         45.2970    -1.7490    25.5670 h4         1 VVN       0.234000
     46 H21         44.9900    -5.3810    23.4270 hc         1 VVN       0.062700
     47 H4          45.1560    -4.9130    21.7100 hc         1 VVN       0.062700
     48 O3          48.1310     0.1430    20.9250 os         1 VVN      -0.238200
@<TRIPOS>BOND
     1     1     2 1   
     2     1     5 1   
     3     1    13 1   
     4     2    22 1   
     5     2    25 2   
     6     3    20 3   
     7     4    22 1   
     8     4    27 1   
     9     4    28 1   
    10     4    29 1   
    11     5     6 1   
    12     5    30 1   
    13     5    31 1   
    14     6    26 1   
    15     6    32 1   
    16     6    33 1   
    17     7     8 ar  
    18     7    23 ar  
    19     7    34 1   
    20     8     9 ar  
    21     8    35 1   
    22     9    10 ar  
    23     9    36 1   
    24    10    11 ar  
    25    10    37 1   
    26    11    23 ar  
    27    11    48 1   
    28    12    14 2   
    29    12    17 1   
    30    12    48 1   
    31    13    38 1   
    32    13    39 1   
    33    13    40 1   
    34    14    15 1   
    35    14    41 1   
    36    15    16 2   
    37    15    42 1   
    38    16    24 1   
    39    16    43 1   
    40    17    18 2   
    41    17    24 1   
    42    18    19 1   
    43    18    44 1   
    44    19    20 1   
    45    19    21 2   
    46    21    24 1   
    47    21    45 1   
    48    22    46 1   
    49    22    47 1   
    50    23    26 1   
@<TRIPOS>SUBSTRUCTURE
     1 VVN         1 TEMP              0 ****  ****    0 ROOT
