@<TRIPOS>MOLECULE
VVP
   20    21     1     0     0
SMALL
bcc


@<TRIPOS>ATOM
      1 N1         -26.2860    12.5130    -9.3930 na         1 VVP      -0.171400
      2 C4         -26.2370     8.9570   -10.3460 ca         1 VVP      -0.070000
      3 C5         -26.7410    10.2380   -10.3430 ca         1 VVP      -0.185000
      4 C6         -26.0410    11.1870    -9.5910 ca         1 VVP      -0.020200
      5 C7         -25.3270    13.0420    -8.5760 cc         1 VVP      -0.134100
      6 C8         -24.4370    12.0690    -8.2250 cd         1 VVP      -0.159200
      7 C1         -22.7400     8.0140    -8.1670 c3         1 VVP       0.124700
      8 C2         -24.3910     9.5510    -8.8910 ca         1 VVP       0.192100
      9 C3         -25.0760     8.6030    -9.6310 ca         1 VVP      -0.259000
     10 C9         -24.8770    10.8700    -8.8650 ca         1 VVP      -0.130800
     11 H7         -27.0500    13.0300    -9.7950 hn         1 VVP       0.297700
     12 H5         -26.7420     8.1880   -10.9160 ha         1 VVP       0.125000
     13 H6         -27.6360    10.4960   -10.8940 ha         1 VVP       0.132000
     14 H8         -25.3530    14.0850    -8.3050 h4         1 VVP       0.161000
     15 H9         -23.5770    12.1970    -7.5880 ha         1 VVP       0.161000
     16 H1         -21.8450     8.0470    -7.5510 h1         1 VVP       0.039367
     17 H2         -23.4390     7.2920    -7.7360 h1         1 VVP       0.039367
     18 H3         -22.4650     7.6770    -9.1700 h1         1 VVP       0.039367
     19 H4         -24.7390     7.5760    -9.6750 ha         1 VVP       0.132000
     20 O1         -23.2730     9.3220    -8.1760 os         1 VVP      -0.311900
@<TRIPOS>BOND
     1     1     4 1   
     2     1     5 1   
     3     1    11 1   
     4     2     3 ar  
     5     2     9 ar  
     6     2    12 1   
     7     3     4 ar  
     8     3    13 1   
     9     4    10 ar  
    10     5     6 2   
    11     5    14 1   
    12     6    10 1   
    13     6    15 1   
    14     7    16 1   
    15     7    17 1   
    16     7    18 1   
    17     7    20 1   
    18     8     9 ar  
    19     8    10 ar  
    20     8    20 1   
    21     9    19 1   
@<TRIPOS>SUBSTRUCTURE
     1 VVP         1 TEMP              0 ****  ****    0 ROOT
