@<TRIPOS>MOLECULE
VVP
   20    21     1     0     0
SMALL
No Charge or Current Charge


@<TRIPOS>ATOM
      1 N1         -26.3120    12.5510    -9.4020 na         1 VVP      -0.221700
      2 C4         -26.2620     8.9340   -10.3680 ca         1 VVP      -0.052000
      3 C5         -26.7500    10.2590   -10.3420 ca         1 VVP      -0.167000
      4 C6         -26.0440    11.2030    -9.5880 ca         1 VVP      -0.020200
      5 C7         -25.3350    13.1300    -8.5600 cc         1 VVP      -0.184100
      6 C8         -24.4800    12.0810    -8.2540 cd         1 VVP      -0.209200
      7 C1         -22.6740     7.9740    -8.1310 c3         1 VVP       0.147900
      8 C2         -24.3970     9.5620    -8.8930 ca         1 VVP       0.192100
      9 C3         -25.0920     8.5840    -9.6490 ca         1 VVP      -0.241000
     10 C9         -24.9160    10.8640    -8.8950 ca         1 VVP      -0.130800
     11 H7         -27.0990    13.0430    -9.8140 hn         1 VVP       0.348000
     12 H5         -26.7890     8.1770   -10.9450 ha         1 VVP       0.107000
     13 H6         -27.6470    10.5340   -10.8910 ha         1 VVP       0.114000
     14 H8         -25.3320    14.1780    -8.2680 h4         1 VVP       0.211000
     15 H9         -23.6010    12.1670    -7.6180 ha         1 VVP       0.211000
     16 H1         -21.7740     7.9730    -7.5040 h1         1 VVP       0.039367
     17 H2         -23.3830     7.2490    -7.7110 h1         1 VVP       0.039367
     18 H3         -22.3880     7.6440    -9.1380 h1         1 VVP       0.039367
     19 H4         -24.7440     7.5560    -9.6900 ha         1 VVP       0.114000
     20 O1         -23.2530     9.2900    -8.1710 os         1 VVP      -0.335100
@<TRIPOS>BOND
     1     1     4 1   
     2     1     5 1   
     3     1    11 1   
     4     2     3 ar  
     5     2     9 ar  
     6     2    12 1   
     7     3     4 ar  
     8     3    13 1   
     9     4    10 ar  
    10     5     6 2   
    11     5    14 1   
    12     6    10 1   
    13     6    15 1   
    14     7    16 1   
    15     7    17 1   
    16     7    18 1   
    17     7    20 1   
    18     8     9 ar  
    19     8    10 ar  
    20     8    20 1   
    21     9    19 1   
@<TRIPOS>SUBSTRUCTURE
     1 VVP         1 TEMP              0 ****  ****    0 ROOT
