@<TRIPOS>MOLECULE
VVQ
   37    39     1     0     0
SMALL
No Charge or Current Charge


@<TRIPOS>ATOM
      1 C16         -3.2700    -1.8210     0.7480 ca         1 VVQ      -0.297000
      2 C17         -4.5870    -2.3020     0.8270 ca         1 VVQ       0.159900
      3 N18         -5.6240    -1.5860     0.3520 nb         1 VVQ      -0.247000
      4 C19         -5.3170    -0.4010    -0.1930 ca         1 VVQ       0.387900
      5 N21         -6.3590     0.3240    -0.6710 nv         1 VVQ      -1.060900
      6 N20         -4.1030     0.1530    -0.3190 nb         1 VVQ      -0.256000
      7 C15         -3.0600    -0.5600     0.1560 ca         1 VVQ       0.259500
      8 C11         -1.7080    -0.0030     0.0400 cc         1 VVQ      -0.262500
      9 N7          -0.4940    -0.5880     0.3990 na         1 VVQ      -0.084000
     10 C10         -1.4210     1.2290    -0.4950 cd         1 VVQ      -0.084000
     11 C9          -0.0130     1.4280    -0.4630 cd         1 VVQ      -0.232600
     12 C12          0.7470     2.6150    -0.9520 c          1 VVQ       0.645700
     13 O13          1.9590     2.7450    -0.9240 o          1 VVQ      -0.615100
     14 N14         -0.0140     3.6030    -1.4640 nt         1 VVQ      -0.604000
     15 C8           0.5370     0.2990     0.1080 cc         1 VVQ      -0.032000
     16 C1           1.9640     0.0770     0.3240 ca         1 VVQ      -0.031000
     17 C6           2.6880    -0.6790    -0.6160 ca         1 VVQ      -0.082000
     18 C5           4.0590    -0.9150    -0.4310 ca         1 VVQ       0.109000
     19 Cl           4.9560    -1.8570    -1.6160 cl         1 VVQ      -0.204000
     20 C4           4.7150    -0.4010     0.6980 ca         1 VVQ      -0.084000
     21 C3           3.9970     0.3480     1.6450 ca         1 VVQ      -0.109000
     22 C2           2.6190     0.5910     1.4680 ca         1 VVQ      -0.018300
     23 C22          1.8540     1.3990     2.5100 c3         1 VVQ      -0.053800
     24 H16         -2.4480    -2.4130     1.1370 ha         1 VVQ       0.125000
     25 H17         -4.8150    -3.2680     1.2740 h4         1 VVQ       0.021100
     26 H211        -7.3020     0.0530    -0.4020 hn         1 VVQ       0.497000
     27 H212        -6.2100     1.3070    -0.8880 hn         1 VVQ       0.497000
     28 H7          -0.3720    -1.5070     0.8120 hn         1 VVQ       0.354000
     29 H10         -2.1550     1.9300    -0.8830 ha         1 VVQ       0.146000
     30 H141        -1.0160     3.5030    -1.4910 hn         1 VVQ       0.311000
     31 H142         0.4320     4.4360    -1.8150 hn         1 VVQ       0.311000
     32 H6           2.1860    -1.0790    -1.4930 ha         1 VVQ       0.131000
     33 H4           5.7770    -0.5860     0.8390 ha         1 VVQ       0.130000
     34 H3           4.5130     0.7400     2.5190 ha         1 VVQ       0.119000
     35 H221         0.9890     0.8400     2.8860 hc         1 VVQ       0.051700
     36 H222         2.4810     1.6500     3.3740 hc         1 VVQ       0.051700
     37 H223         1.4860     2.3410     2.0850 hc         1 VVQ       0.051700
@<TRIPOS>BOND
     1     1     2 ar  
     2     1     7 ar  
     3     1    24 1   
     4     2     3 ar  
     5     2    25 1   
     6     3     4 ar  
     7     4     5 1   
     8     4     6 ar  
     9     5    26 1   
    10     5    27 1   
    11     6     7 ar  
    12     7     8 1   
    13     8     9 1   
    14     8    10 2   
    15     9    15 1   
    16     9    28 1   
    17    10    11 1   
    18    10    29 1   
    19    11    12 1   
    20    11    15 2   
    21    12    13 2   
    22    12    14 1   
    23    14    30 1   
    24    14    31 1   
    25    15    16 1   
    26    16    17 ar  
    27    16    22 ar  
    28    17    18 ar  
    29    17    32 1   
    30    18    19 1   
    31    18    20 ar  
    32    20    21 ar  
    33    20    33 1   
    34    21    22 ar  
    35    21    34 1   
    36    22    23 1   
    37    23    35 1   
    38    23    36 1   
    39    23    37 1   
@<TRIPOS>SUBSTRUCTURE
     1 VVQ         1 TEMP              0 ****  ****    0 ROOT
