@<TRIPOS>MOLECULE
VVQ
   37    39     1     0     0
SMALL
abcg2


@<TRIPOS>ATOM
      1 C16         -3.0500    -1.8640     0.6030 ca         1 VVQ      -0.297000
      2 C17         -4.3230    -2.4000     0.6820 ca         1 VVQ       0.159900
      3 N18         -5.4170    -1.7400     0.3430 nb         1 VVQ      -0.247000
      4 C19         -5.2300    -0.4880    -0.0970 ca         1 VVQ       0.387900
      5 N21         -6.3240     0.1960    -0.4850 nv         1 VVQ      -1.060900
      6 N20         -4.0540     0.1300    -0.2080 nb         1 VVQ      -0.256000
      7 C15         -2.9670    -0.5520     0.1370 ca         1 VVQ       0.259500
      8 C11         -1.7060     0.1530    -0.0110 cc         1 VVQ      -0.262500
      9 N7          -0.4910    -0.3800     0.3270 na         1 VVQ      -0.084000
     10 C10         -1.4720     1.4180    -0.4960 cd         1 VVQ      -0.084000
     11 C9          -0.0770     1.6460    -0.4420 cd         1 VVQ      -0.232600
     12 C12          0.6730     2.8330    -0.8850 c          1 VVQ       0.645700
     13 O13          1.8660     2.9740    -0.6390 o          1 VVQ      -0.615100
     14 N14         -0.0350     3.7520    -1.5670 nt         1 VVQ      -0.604000
     15 C8           0.5020     0.5000     0.0860 cc         1 VVQ      -0.032000
     16 C1           1.9040     0.1260     0.3450 ca         1 VVQ      -0.031000
     17 C6           2.5180    -0.7610    -0.5320 ca         1 VVQ      -0.082000
     18 C5           3.8250    -1.1600    -0.3030 ca         1 VVQ       0.109000
     19 CL           4.5830    -2.2610    -1.4080 cl         1 VVQ      -0.204000
     20 C4           4.5260    -0.6930     0.7930 ca         1 VVQ      -0.084000
     21 C3           3.8970     0.1820     1.6670 ca         1 VVQ      -0.109000
     22 C2           2.5870     0.6060     1.4690 ca         1 VVQ      -0.018300
     23 C22          1.9350     1.5450     2.4380 c3         1 VVQ      -0.053800
     24 H16         -2.1900    -2.4510     0.8890 ha         1 VVQ       0.125000
     25 H17         -4.4640    -3.4140     1.0390 h4         1 VVQ       0.021100
     26 H211        -7.2310    -0.1710    -0.2560 hn         1 VVQ       0.497000
     27 H212        -6.2520     1.1870    -0.6370 hn         1 VVQ       0.497000
     28 H7          -0.3380    -1.2930     0.7250 hn         1 VVQ       0.354000
     29 H10         -2.2400     2.0910    -0.8410 ha         1 VVQ       0.146000
     30 H141        -0.9720     3.5850    -1.8870 hn         1 VVQ       0.311000
     31 H142         0.4330     4.5620    -1.9390 hn         1 VVQ       0.311000
     32 H6           1.9790    -1.1280    -1.3950 ha         1 VVQ       0.131000
     33 H4           5.5450    -1.0060     0.9740 ha         1 VVQ       0.130000
     34 H3           4.4440     0.5410     2.5300 ha         1 VVQ       0.119000
     35 H221         0.9650     1.1730     2.7690 hc         1 VVQ       0.051700
     36 H222         2.5560     1.6920     3.3190 hc         1 VVQ       0.051700
     37 H223         1.7670     2.5180     1.9770 hc         1 VVQ       0.051700
@<TRIPOS>BOND
     1     1     2 ar  
     2     1     7 ar  
     3     1    24 1   
     4     2     3 ar  
     5     2    25 1   
     6     3     4 ar  
     7     4     5 1   
     8     4     6 ar  
     9     5    26 1   
    10     5    27 1   
    11     6     7 ar  
    12     7     8 1   
    13     8     9 1   
    14     8    10 2   
    15     9    15 1   
    16     9    28 1   
    17    10    11 1   
    18    10    29 1   
    19    11    12 1   
    20    11    15 2   
    21    12    13 2   
    22    12    14 1   
    23    14    30 1   
    24    14    31 1   
    25    15    16 1   
    26    16    17 ar  
    27    16    22 ar  
    28    17    18 ar  
    29    17    32 1   
    30    18    19 1   
    31    18    20 ar  
    32    20    21 ar  
    33    20    33 1   
    34    21    22 ar  
    35    21    34 1   
    36    22    23 1   
    37    23    35 1   
    38    23    36 1   
    39    23    37 1   
@<TRIPOS>SUBSTRUCTURE
     1 VVQ         1 TEMP              0 ****  ****    0 ROOT
