@<TRIPOS>MOLECULE
VVR
   21    21     1     0     0
SMALL
No Charge or Current Charge


@<TRIPOS>ATOM
      1 C7          26.3760    18.9770    41.6660 c3         1 VVR      -0.214400
      2 C8          27.1790    20.1010    41.0060 c          1 VVR       0.717000
      3 O1          26.5780    21.1110    40.6710 o          1 VVR      -0.736500
      4 C1          27.4520    14.8390    37.3170 ca         1 VVR      -0.082000
      5 C5          25.0530    15.2410    37.4110 ca         1 VVR      -0.082000
      6 C6          25.7520    18.0750    40.5850 c3         1 VVR       0.186600
      7 C4          25.2460    16.1710    38.4480 ca         1 VVR      -0.180000
      8 C3          26.5500    16.4380    38.9240 ca         1 VVR       0.176100
      9 C2          27.6450    15.7680    38.3530 ca         1 VVR      -0.180000
     10 O2          28.3790    19.9440    40.8410 o          1 VVR      -0.736500
     11 O           26.8020    17.3390    39.9380 os         1 VVR      -0.326100
     12 C           26.1540    14.5760    36.8470 ca         1 VVR      -0.179000
     13 H1          25.5180    19.3940    42.2060 hc         1 VVR       0.033700
     14 H2          27.0160    18.3350    42.2830 hc         1 VVR       0.033700
     15 H5          25.2010    18.6900    39.8620 h1         1 VVR       0.020200
     16 H6          25.0450    17.3840    41.0630 h1         1 VVR       0.020200
     17 H7          24.3780    16.6710    38.8680 ha         1 VVR       0.122500
     18 H8          28.6490    15.9720    38.7170 ha         1 VVR       0.122500
     19 H10         26.0020    13.8570    36.0450 ha         1 VVR       0.095000
     20 H3          28.3040    14.3240    36.8800 ha         1 VVR       0.095000
     21 H4          24.0490    15.0350    37.0450 ha         1 VVR       0.095000
@<TRIPOS>BOND
     1     1     2 1   
     2     1     6 1   
     3     1    13 1   
     4     1    14 1   
     5     2     3 1   
     6     2    10 1   
     7     4     9 ar  
     8     4    12 ar  
     9     4    20 1   
    10     5     7 ar  
    11     5    12 ar  
    12     5    21 1   
    13     6    11 1   
    14     6    15 1   
    15     6    16 1   
    16     7     8 ar  
    17     7    17 1   
    18     8     9 ar  
    19     8    11 1   
    20     9    18 1   
    21    12    19 1   
@<TRIPOS>SUBSTRUCTURE
     1 VVR         1 TEMP              0 ****  ****    0 ROOT
