@<TRIPOS>MOLECULE
VVR
   21    21     1     0     0
SMALL
abcg2


@<TRIPOS>ATOM
      1 C7          26.4040    18.9150    41.6200 c3         1 VVR      -0.214400
      2 C8          27.2780    20.0410    41.0250 c          1 VVR       0.717000
      3 O1          26.9000    20.5570    39.9430 o          1 VVR      -0.736500
      4 C1          27.3820    14.9520    37.2290 ca         1 VVR      -0.082000
      5 C5          25.0130    15.2600    37.4630 ca         1 VVR      -0.082000
      6 C6          25.7760    18.0000    40.5970 c3         1 VVR       0.186600
      7 C4          25.2200    16.1520    38.5140 ca         1 VVR      -0.180000
      8 C3          26.5240    16.4430    38.9230 ca         1 VVR       0.176100
      9 C2          27.6040    15.8360    38.2730 ca         1 VVR      -0.180000
     10 O2          28.2880    20.3790    41.6950 o          1 VVR      -0.736500
     11 O           26.8370    17.2930    39.9340 os         1 VVR      -0.326100
     12 C           26.0830    14.6560    36.8160 ca         1 VVR      -0.179000
     13 H1          25.5950    19.3920    42.1840 hc         1 VVR       0.033700
     14 H2          26.9920    18.3340    42.3330 hc         1 VVR       0.033700
     15 H5          25.2090    18.5750    39.8610 h1         1 VVR       0.020200
     16 H6          25.1070    17.2780    41.0750 h1         1 VVR       0.020200
     17 H7          24.3720    16.6080    39.0020 ha         1 VVR       0.122500
     18 H8          28.6090    16.0740    38.6000 ha         1 VVR       0.122500
     19 H10         25.9110    13.9640    36.0010 ha         1 VVR       0.095000
     20 H3          28.2280    14.4910    36.7340 ha         1 VVR       0.095000
     21 H4          23.9980    15.0400    37.1550 ha         1 VVR       0.095000
@<TRIPOS>BOND
     1     1     2 1   
     2     1     6 1   
     3     1    13 1   
     4     1    14 1   
     5     2     3 1   
     6     2    10 1   
     7     4     9 ar  
     8     4    12 ar  
     9     4    20 1   
    10     5     7 ar  
    11     5    12 ar  
    12     5    21 1   
    13     6    11 1   
    14     6    15 1   
    15     6    16 1   
    16     7     8 ar  
    17     7    17 1   
    18     8     9 ar  
    19     8    11 1   
    20     9    18 1   
    21    12    19 1   
@<TRIPOS>SUBSTRUCTURE
     1 VVR         1 TEMP              0 ****  ****    0 ROOT
