@<TRIPOS>MOLECULE
VVS
   57    59     1     0     0
SMALL
No Charge or Current Charge


@<TRIPOS>ATOM
      1 C1           1.4360    -0.6350     0.8090 ca         1 VVS      -0.179300
      2 C2           0.1350    -1.1600     0.9150 ca         1 VVS      -0.043000
      3 C3           1.6410     0.5950     0.1590 ca         1 VVS       0.179100
      4 C4           2.5980    -1.4250     1.4080 c3         1 VVS       0.130400
      5 C5          -0.9870    -0.4920     0.3680 ca         1 VVS      -0.097300
      6 C6           0.5430     1.3020    -0.3740 ca         1 VVS      -0.179300
      7 O7           2.9030     1.1030     0.0560 oh         1 VVS      -0.542100
      8 N8           3.1130    -2.4530     0.4910 na         1 VVS      -0.169500
      9 C9          -0.7520     0.7580    -0.2600 ca         1 VVS      -0.043000
     10 C10         -2.4160    -1.1110     0.5180 c3         1 VVS       0.020300
     11 C11          0.7090     2.6400    -1.1030 c3         1 VVS       0.130400
     12 C12          4.1110    -2.2910    -0.4450 cc         1 VVS      -0.228000
     13 C13          2.6720    -3.7560     0.4030 cc         1 VVS       0.384900
     14 C14         -3.4680    -0.2880    -0.3330 c3         1 VVS      -0.062400
     15 C15         -2.3840    -2.5970     0.0570 c3         1 VVS      -0.085100
     16 C16         -2.7520    -1.0490     2.0370 c3         1 VVS      -0.085100
     17 N17          1.4090     3.6680    -0.3170 na         1 VVS      -0.169500
     18 C18          4.2390    -3.5100    -1.0600 cd         1 VVS       0.227400
     19 N19          3.3450    -4.4180    -0.5290 nd         1 VVS      -0.670500
     20 C20         -4.9530    -0.7380    -0.6130 c3         1 VVS      -0.038000
     21 C21          2.6510     4.2070    -0.5820 cc         1 VVS      -0.228000
     22 C22          0.9270     4.2810     0.8200 cc         1 VVS       0.384900
     23 C23         -5.7350    -1.1630     0.6550 c3         1 VVS      -0.086100
     24 C24         -5.6700     0.5050    -1.2110 c3         1 VVS      -0.086100
     25 C25         -5.0380    -1.8630    -1.6840 c3         1 VVS      -0.086100
     26 C26          2.8740     5.1190     0.4170 cd         1 VVS       0.227400
     27 N27          1.8030     5.1590     1.2860 nd         1 VVS      -0.670500
     28 H2           0.0090    -2.0980     1.4460 ha         1 VVS       0.117000
     29 H41C         3.4210    -0.7540     1.6830 h1         1 VVS       0.065450
     30 H42C         2.2670    -1.9160     2.3320 h1         1 VVS       0.065450
     31 H7           2.8230     2.0450    -0.2010 ho         1 VVS       0.470000
     32 H9          -1.5710     1.3390    -0.6700 ha         1 VVS       0.117000
     33 H111         1.2620     2.4720    -2.0360 h1         1 VVS       0.065450
     34 H112        -0.2740     3.0410    -1.3830 h1         1 VVS       0.065450
     35 H12          4.6350    -1.3570    -0.6040 h4         1 VVS       0.157500
     36 H13          1.8810    -4.1490     1.0310 h5         1 VVS       0.049600
     37 H141        -3.5570     1.2860     0.4010 hc         1 VVS       0.037700
     38 H142        -2.7740    -0.0550    -1.9110 hc         1 VVS       0.037700
     39 H151        -1.6020    -3.1780     0.5530 hc         1 VVS       0.037700
     40 H152        -3.3220    -3.1030     0.3060 hc         1 VVS       0.037700
     41 H153        -2.2180    -2.6660    -1.0240 hc         1 VVS       0.037700
     42 H161        -2.8610    -0.0100     2.3730 hc         1 VVS       0.037700
     43 H162        -3.6680    -1.5880     2.2880 hc         1 VVS       0.037700
     44 H163        -1.9570    -1.5050     2.6380 hc         1 VVS       0.037700
     45 H18          4.9230    -3.7820    -1.8550 h4         1 VVS       0.037100
     46 H21          3.2610     3.9320    -1.4350 h4         1 VVS       0.157500
     47 H22         -0.0400     4.0410     1.2480 h5         1 VVS       0.049600
     48 H231        -5.6290    -0.4170     1.4520 hc         1 VVS       0.033589
     49 H232        -6.8040    -1.2670     0.4360 hc         1 VVS       0.033589
     50 H233        -5.3930    -2.1340     1.0280 hc         1 VVS       0.033589
     51 H241        -5.1560     0.8610    -2.1120 hc         1 VVS       0.033589
     52 H242        -6.7060     0.2720    -1.4870 hc         1 VVS       0.033589
     53 H243        -5.7010     1.3310    -0.4900 hc         1 VVS       0.033589
     54 H251        -4.7470    -2.8410    -1.2930 hc         1 VVS       0.033589
     55 H252        -6.0660    -1.9720    -2.0530 hc         1 VVS       0.033589
     56 H253        -4.3990    -1.6340    -2.5440 hc         1 VVS       0.033589
     57 H26          3.7430     5.7530     0.5550 h4         1 VVS       0.037100
@<TRIPOS>BOND
     1     1     2 ar  
     2     1     3 ar  
     3     1     4 1   
     4     2     5 ar  
     5     2    28 1   
     6     3     6 ar  
     7     3     7 1   
     8     4     8 1   
     9     4    29 1   
    10     4    30 1   
    11     5     9 ar  
    12     5    10 1   
    13     6     9 ar  
    14     6    11 1   
    15     7    31 1   
    16     8    12 1   
    17     8    13 1   
    18     9    32 1   
    19    10    14 1   
    20    10    15 1   
    21    10    16 1   
    22    11    17 1   
    23    11    33 1   
    24    11    34 1   
    25    12    18 2   
    26    12    35 1   
    27    13    19 2   
    28    13    36 1   
    29    14    20 1   
    30    14    37 1   
    31    14    38 1   
    32    15    39 1   
    33    15    40 1   
    34    15    41 1   
    35    16    42 1   
    36    16    43 1   
    37    16    44 1   
    38    17    21 1   
    39    17    22 1   
    40    18    19 1   
    41    18    45 1   
    42    20    23 1   
    43    20    24 1   
    44    20    25 1   
    45    21    26 2   
    46    21    46 1   
    47    22    27 2   
    48    22    47 1   
    49    23    48 1   
    50    23    49 1   
    51    23    50 1   
    52    24    51 1   
    53    24    52 1   
    54    24    53 1   
    55    25    54 1   
    56    25    55 1   
    57    25    56 1   
    58    26    27 1   
    59    26    57 1   
@<TRIPOS>SUBSTRUCTURE
     1 VVS         1 TEMP              0 ****  ****    0 ROOT
