@<TRIPOS>MOLECULE
VVS
   57    59     1     0     0
SMALL
abcg2


@<TRIPOS>ATOM
      1 C1           1.6010    -0.8350     0.7180 ca         1 VVS      -0.179300
      2 C2           0.2780    -1.2040     0.8890 ca         1 VVS      -0.043000
      3 C3           1.9010     0.3050    -0.0360 ca         1 VVS       0.179100
      4 C4           2.6920    -1.6840     1.3140 c3         1 VVS       0.130400
      5 C5          -0.7890    -0.5040     0.3200 ca         1 VVS      -0.097300
      6 C6           0.8650     1.0380    -0.6080 ca         1 VVS      -0.179300
      7 O7           3.2050     0.6380    -0.1410 oh         1 VVS      -0.542100
      8 N8           3.1970    -2.6670     0.3700 na         1 VVS      -0.169500
      9 C9          -0.4520     0.6180    -0.4220 ca         1 VVS      -0.043000
     10 C10         -2.2290    -0.9730     0.5830 c3         1 VVS       0.020300
     11 C11          1.1010     2.3080    -1.3830 c3         1 VVS       0.130400
     12 C12          4.1800    -2.4930    -0.5650 cc         1 VVS      -0.228000
     13 C13          2.7050    -3.9120     0.1950 cc         1 VVS       0.384900
     14 C14         -3.2090    -0.1030    -0.2360 c3         1 VVS      -0.062400
     15 C15         -2.3420    -2.4570     0.2130 c3         1 VVS      -0.085100
     16 C16         -2.4710    -0.8030     2.0930 c3         1 VVS      -0.085100
     17 N17          0.9110     3.4870    -0.5600 na         1 VVS      -0.169500
     18 C18          4.2340    -3.6670    -1.2600 cd         1 VVS       0.227400
     19 N19          3.3090    -4.5480    -0.7760 nd         1 VVS      -0.670500
     20 C20         -4.7180    -0.4140    -0.4120 c3         1 VVS      -0.038000
     21 C21          1.6590     3.8640     0.5200 cc         1 VVS      -0.228000
     22 C22         -0.0890     4.3860    -0.6800 cc         1 VVS       0.384900
     23 C23         -5.4550    -0.7890     0.8750 c3         1 VVS      -0.086100
     24 C24         -5.3390     0.8840    -0.9490 c3         1 VVS      -0.086100
     25 C25         -4.9580    -1.4980    -1.4700 c3         1 VVS      -0.086100
     26 C26          1.0650     4.9970     0.9970 cd         1 VVS       0.227400
     27 N27         -0.0260     5.3140     0.2400 nd         1 VVS      -0.670500
     28 H2           0.0840    -2.0790     1.4980 ha         1 VVS       0.117000
     29 H41C         3.5320    -1.0890     1.6690 h1         1 VVS       0.065450
     30 H42C         2.3040    -2.2280     2.1740 h1         1 VVS       0.065450
     31 H7           3.3530     1.3190    -0.8040 ho         1 VVS       0.470000
     32 H9          -1.2220     1.2190    -0.8870 ha         1 VVS       0.117000
     33 H111         2.0870     2.3570    -1.8480 h1         1 VVS       0.065450
     34 H112         0.3910     2.3710    -2.2080 h1         1 VVS       0.065450
     35 H12          4.7390    -1.5780    -0.6490 h4         1 VVS       0.157500
     36 H13          1.9110    -4.3050     0.8130 h5         1 VVS       0.049600
     37 H141        -3.1380     0.9100     0.1750 hc         1 VVS       0.037700
     38 H142        -2.8210    -0.0330    -1.2580 hc         1 VVS       0.037700
     39 H151        -1.6000    -3.0620     0.7330 hc         1 VVS       0.037700
     40 H152        -3.3190    -2.8560     0.4880 hc         1 VVS       0.037700
     41 H153        -2.2010    -2.6110    -0.8580 hc         1 VVS       0.037700
     42 H161        -2.4280     0.2500     2.3790 hc         1 VVS       0.037700
     43 H162        -3.4400    -1.1930     2.3950 hc         1 VVS       0.037700
     44 H163        -1.7170    -1.3340     2.6760 hc         1 VVS       0.037700
     45 H18          4.8940    -3.9220    -2.0750 h4         1 VVS       0.037100
     46 H21          2.5260     3.3140     0.8490 h4         1 VVS       0.157500
     47 H22         -0.8300     4.3140    -1.4630 h5         1 VVS       0.049600
     48 H231        -5.2950    -0.0500     1.6630 hc         1 VVS       0.033589
     49 H232        -6.5300    -0.8370     0.6870 hc         1 VVS       0.033589
     50 H233        -5.1560    -1.7640     1.2620 hc         1 VVS       0.033589
     51 H241        -4.8270     1.2170    -1.8550 hc         1 VVS       0.033589
     52 H242        -6.3930     0.7410    -1.1980 hc         1 VVS       0.033589
     53 H243        -5.2750     1.6900    -0.2150 hc         1 VVS       0.033589
     54 H251        -4.5930    -2.4770    -1.1690 hc         1 VVS       0.033589
     55 H252        -6.0270    -1.5990    -1.6710 hc         1 VVS       0.033589
     56 H253        -4.4710    -1.2340    -2.4120 hc         1 VVS       0.033589
     57 H26          1.3710     5.5960     1.8410 h4         1 VVS       0.037100
@<TRIPOS>BOND
     1     1     2 ar  
     2     1     3 ar  
     3     1     4 1   
     4     2     5 ar  
     5     2    28 1   
     6     3     6 ar  
     7     3     7 1   
     8     4     8 1   
     9     4    29 1   
    10     4    30 1   
    11     5     9 ar  
    12     5    10 1   
    13     6     9 ar  
    14     6    11 1   
    15     7    31 1   
    16     8    12 1   
    17     8    13 1   
    18     9    32 1   
    19    10    14 1   
    20    10    15 1   
    21    10    16 1   
    22    11    17 1   
    23    11    33 1   
    24    11    34 1   
    25    12    18 2   
    26    12    35 1   
    27    13    19 2   
    28    13    36 1   
    29    14    20 1   
    30    14    37 1   
    31    14    38 1   
    32    15    39 1   
    33    15    40 1   
    34    15    41 1   
    35    16    42 1   
    36    16    43 1   
    37    16    44 1   
    38    17    21 1   
    39    17    22 1   
    40    18    19 1   
    41    18    45 1   
    42    20    23 1   
    43    20    24 1   
    44    20    25 1   
    45    21    26 2   
    46    21    46 1   
    47    22    27 2   
    48    22    47 1   
    49    23    48 1   
    50    23    49 1   
    51    23    50 1   
    52    24    51 1   
    53    24    52 1   
    54    24    53 1   
    55    25    54 1   
    56    25    55 1   
    57    25    56 1   
    58    26    27 1   
    59    26    57 1   
@<TRIPOS>SUBSTRUCTURE
     1 VVS         1 TEMP              0 ****  ****    0 ROOT
