@<TRIPOS>MOLECULE
VVT
   29    31     1     0     0
SMALL
abcg2


@<TRIPOS>ATOM
      1 CL7          4.5500     0.0190    -0.0470 cl         1 VVT      -0.140000
      2 C3           2.8590     0.3370    -0.0480 ca         1 VVT       0.369000
      3 N2           2.5050     1.5960    -0.0840 nb         1 VVT      -0.295000
      4 N1           1.2300     1.9020    -0.1150 nb         1 VVT      -0.301000
      5 C4           1.9600    -0.7200     0.0070 ca         1 VVT      -0.103000
      6 C5           0.6200    -0.4030     0.0130 cp         1 VVT      -0.030000
      7 C8          -0.3810    -1.4770     0.1520 cp         1 VVT      -0.013000
      8 C18         -0.3420    -2.5890    -0.6800 ca         1 VVT      -0.144000
      9 C17         -1.2820    -3.5920    -0.4960 ca         1 VVT       0.336400
     10 N16         -2.2180    -3.5550     0.4440 nb         1 VVT      -0.655000
     11 C15         -2.2440    -2.4940     1.2440 ca         1 VVT       0.336400
     12 C14         -1.3600    -1.4330     1.1390 ca         1 VVT      -0.144000
     13 C            0.2930     0.9660    -0.0840 cq         1 VVT       0.362500
     14 C6          -1.0940     1.4670    -0.1670 cq         1 VVT      -0.159500
     15 C13         -1.4800     2.5610     0.6040 ca         1 VVT      -0.076500
     16 C12         -2.7720     3.0570     0.5190 ca         1 VVT      -0.116000
     17 C11         -3.6870     2.4740    -0.3490 ca         1 VVT      -0.093000
     18 C10         -3.3020     1.3940    -1.1320 ca         1 VVT      -0.116000
     19 C9          -2.0140     0.8890    -1.0400 ca         1 VVT      -0.076500
     20 H1           2.3030    -1.7430     0.0810 ha         1 VVT       0.149000
     21 H2           0.3900    -2.6730    -1.4720 ha         1 VVT       0.131000
     22 H3          -1.2730    -4.4630    -1.1410 h4         1 VVT       0.024600
     23 H4          -3.0090    -2.4830     2.0110 h4         1 VVT       0.024600
     24 H5          -1.4330    -0.6010     1.8250 ha         1 VVT       0.131000
     25 H6          -0.7720     3.0180     1.2830 ha         1 VVT       0.122500
     26 H7          -3.0640     3.9010     1.1300 ha         1 VVT       0.117500
     27 H8          -4.6950     2.8610    -0.4160 ha         1 VVT       0.116000
     28 H9          -4.0050     0.9420    -1.8200 ha         1 VVT       0.117500
     29 H10         -1.7260     0.0550    -1.6670 ha         1 VVT       0.122500
@<TRIPOS>BOND
     1     1     2 1   
     2     2     3 ar  
     3     2     5 ar  
     4     3     4 ar  
     5     4    13 1   
     6     5     6 ar  
     7     5    20 1   
     8     6     7 1   
     9     6    13 2   
    10     7     8 ar  
    11     7    12 ar  
    12     8     9 ar  
    13     8    21 1   
    14     9    10 ar  
    15     9    22 1   
    16    10    11 ar  
    17    11    12 ar  
    18    11    23 1   
    19    12    24 1   
    20    13    14 1   
    21    14    15 1   
    22    14    19 2   
    23    15    16 ar  
    24    15    25 1   
    25    16    17 ar  
    26    16    26 1   
    27    17    18 ar  
    28    17    27 1   
    29    18    19 ar  
    30    18    28 1   
    31    19    29 1   
@<TRIPOS>SUBSTRUCTURE
     1 VVT         1 TEMP              0 ****  ****    0 ROOT
