@<TRIPOS>MOLECULE
VVT
   29    31     1     0     0
SMALL
No Charge or Current Charge


@<TRIPOS>ATOM
      1 Cl7          4.6810    -0.0360    -0.0860 cl         1 VVT      -0.140000
      2 C3           2.9530     0.2890    -0.0610 ca         1 VVT       0.369000
      3 N2           2.5690     1.5840     0.0240 nb         1 VVT      -0.295000
      4 N1           1.2600     1.9210     0.0520 nb         1 VVT      -0.301000
      5 C4           2.0230    -0.7600    -0.0910 ca         1 VVT      -0.103000
      6 C5           0.6480    -0.4290    -0.0410 cp         1 VVT      -0.030000
      7 C8          -0.3330    -1.5500     0.1050 cp         1 VVT      -0.013000
      8 C18         -0.2200    -2.7440    -0.6450 ca         1 VVT      -0.144000
      9 C17         -1.1590    -3.7750    -0.4730 ca         1 VVT       0.336400
     10 N16         -2.1920    -3.6940     0.3970 nb         1 VVT      -0.655000
     11 C15         -2.3090    -2.5610     1.1270 ca         1 VVT       0.336400
     12 C14         -1.4140    -1.4840     1.0160 ca         1 VVT      -0.144000
     13 C            0.2620     1.0060     0.0030 cq         1 VVT       0.362500
     14 C6          -1.1390     1.5600    -0.1050 cq         1 VVT      -0.159500
     15 C13         -1.5010     2.7460     0.5760 ca         1 VVT      -0.076500
     16 C12         -2.8050     3.2610     0.4730 ca         1 VVT      -0.116000
     17 C11         -3.7630     2.6060    -0.3160 ca         1 VVT      -0.093000
     18 C10         -3.4120     1.4370    -1.0080 ca         1 VVT      -0.116000
     19 C9          -2.1100     0.9180    -0.9080 ca         1 VVT      -0.076500
     20 H1           2.3650    -1.7900    -0.1030 ha         1 VVT       0.149000
     21 H2           0.5790    -2.8720    -1.3690 ha         1 VVT       0.131000
     22 H3          -1.0830    -4.6950    -1.0520 h4         1 VVT       0.024600
     23 H4          -3.1440    -2.5180     1.8250 h4         1 VVT       0.024600
     24 H5          -1.5610    -0.6090     1.6420 ha         1 VVT       0.131000
     25 H6          -0.7810     3.2720     1.2000 ha         1 VVT       0.122500
     26 H7          -3.0720     4.1700     1.0070 ha         1 VVT       0.117500
     27 H8          -4.7710     3.0070    -0.3960 ha         1 VVT       0.116000
     28 H9          -4.1500     0.9330    -1.6280 ha         1 VVT       0.117500
     29 H10         -1.8640     0.0210    -1.4720 ha         1 VVT       0.122500
@<TRIPOS>BOND
     1     1     2 1   
     2     2     3 ar  
     3     2     5 ar  
     4     3     4 ar  
     5     4    13 1   
     6     5     6 ar  
     7     5    20 1   
     8     6     7 1   
     9     6    13 2   
    10     7     8 ar  
    11     7    12 ar  
    12     8     9 ar  
    13     8    21 1   
    14     9    10 ar  
    15     9    22 1   
    16    10    11 ar  
    17    11    12 ar  
    18    11    23 1   
    19    12    24 1   
    20    13    14 1   
    21    14    15 1   
    22    14    19 2   
    23    15    16 ar  
    24    15    25 1   
    25    16    17 ar  
    26    16    26 1   
    27    17    18 ar  
    28    17    27 1   
    29    18    19 ar  
    30    18    28 1   
    31    19    29 1   
@<TRIPOS>SUBSTRUCTURE
     1 VVT         1 TEMP              0 ****  ****    0 ROOT
