@<TRIPOS>MOLECULE
VVV
   33    34     1     0     0
SMALL
abcg2


@<TRIPOS>ATOM
      1 C1          -0.8340    -1.1330     0.1420 ca         1 VVV       0.079100
      2 C2           0.4880    -0.6400     0.1080 ca         1 VVV      -0.070800
      3 C3           0.6790     0.7480     0.0130 ca         1 VVV       0.046600
      4 C4          -0.4190     1.6230    -0.0260 ca         1 VVV       0.121100
      5 C5          -1.7020     1.1230     0.0370 ca         1 VVV      -0.230000
      6 C6          -1.9130    -0.2570     0.1180 ca         1 VVV       0.120100
      7 C7           1.6890    -1.4600     0.1950 cc         1 VVV       0.026600
      8 C8           2.9010    -0.8590     0.1300 cd         1 VVV      -0.300200
      9 C9           3.0980     0.5670    -0.0100 c          1 VVV       0.560200
     10 N10          1.9420     1.2840    -0.0420 ns         1 VVV      -0.361100
     11 O11         -1.0890    -2.4660     0.2130 os         1 VVV      -0.343100
     12 C12         -1.3760    -3.0800    -1.0370 c3         1 VVV       0.146900
     13 O13         -3.1360    -0.8180     0.1800 os         1 VVV      -0.326100
     14 C14         -4.2710     0.0210     0.1170 c3         1 VVV       0.145900
     15 C15          1.6650    -2.9480     0.3850 c3         1 VVV      -0.054900
     16 O16          4.1970     1.1120    -0.0810 o          1 VVV      -0.561000
     17 O17         -0.1100     2.9300    -0.1170 os         1 VVV      -0.352100
     18 C18         -1.1570     3.8810    -0.1310 c3         1 VVV       0.153900
     19 H5          -2.5440     1.7990     0.0200 ha         1 VVV       0.126000
     20 H8           3.8010    -1.4570     0.1990 ha         1 VVV       0.205000
     21 HN10         2.0270     2.2890    -0.1150 hn         1 VVV       0.341500
     22 H12         -0.5520    -2.9540    -1.7450 h1         1 VVV       0.036700
     23 H12A        -1.5130    -4.1430    -0.8460 h1         1 VVV       0.036700
     24 H12B        -2.2880    -2.6830    -1.4880 h1         1 VVV       0.036700
     25 H14         -5.1390    -0.6340     0.1540 h1         1 VVV       0.040700
     26 H14A        -4.3200     0.7120     0.9630 h1         1 VVV       0.040700
     27 H14B        -4.3070     0.5940    -0.8130 h1         1 VVV       0.040700
     28 H15          1.2480    -3.4670    -0.4780 hc         1 VVV       0.053033
     29 H15A         2.6810    -3.3120     0.5240 hc         1 VVV       0.053033
     30 H15B         1.0810    -3.2390     1.2560 hc         1 VVV       0.053033
     31 H18         -1.8250     3.7370    -0.9830 h1         1 VVV       0.044700
     32 H18A        -1.7420     3.8510     0.7910 h1         1 VVV       0.044700
     33 H18B        -0.6840     4.8560    -0.2150 h1         1 VVV       0.044700
@<TRIPOS>BOND
     1     1     2 ar  
     2     1     6 ar  
     3     1    11 1   
     4     2     3 ar  
     5     2     7 1   
     6     3     4 ar  
     7     3    10 1   
     8     4     5 ar  
     9     4    17 1   
    10     5     6 ar  
    11     5    19 1   
    12     6    13 1   
    13     7     8 2   
    14     7    15 1   
    15     8     9 1   
    16     8    20 1   
    17     9    10 1   
    18     9    16 2   
    19    10    21 1   
    20    11    12 1   
    21    12    22 1   
    22    12    23 1   
    23    12    24 1   
    24    13    14 1   
    25    14    25 1   
    26    14    26 1   
    27    14    27 1   
    28    15    28 1   
    29    15    29 1   
    30    15    30 1   
    31    17    18 1   
    32    18    31 1   
    33    18    32 1   
    34    18    33 1   
@<TRIPOS>SUBSTRUCTURE
     1 VVV         1 TEMP              0 ****  ****    0 ROOT
