@<TRIPOS>MOLECULE
VVV
   33    34     1     0     0
SMALL
No Charge or Current Charge


@<TRIPOS>ATOM
      1 C1          -0.7610    -1.1470     0.0980 ca         1 VVV       0.079100
      2 C2           0.5710    -0.6340     0.1220 ca         1 VVV      -0.070800
      3 C3           0.7280     0.7700     0.0510 ca         1 VVV       0.046600
      4 C4          -0.3730     1.6450    -0.0180 ca         1 VVV       0.121100
      5 C5          -1.6780     1.1260    -0.0090 ca         1 VVV      -0.230000
      6 C6          -1.8780    -0.2680     0.0540 ca         1 VVV       0.120100
      7 C7           1.7890    -1.4980     0.2050 cc         1 VVV       0.026600
      8 C8           3.0080    -0.8320     0.1850 cd         1 VVV      -0.300200
      9 C9           3.1930     0.6230     0.1020 c          1 VVV       0.560200
     10 N10          2.0230     1.3090     0.0460 ns         1 VVV      -0.361100
     11 O11         -0.9820    -2.5090     0.1450 os         1 VVV      -0.343100
     12 C12         -1.5860    -3.1850    -0.9740 c3         1 VVV       0.146900
     13 O13         -3.1550    -0.8040     0.1040 os         1 VVV      -0.326100
     14 C14         -4.3460     0.0030     0.0730 c3         1 VVV       0.145900
     15 C15          1.7800    -3.0060     0.3200 c3         1 VVV      -0.054900
     16 O16          4.2800     1.1770     0.0870 o          1 VVV      -0.561000
     17 O17         -0.1230     3.0060    -0.0850 os         1 VVV      -0.352100
     18 C18         -1.1750     3.9860    -0.1580 c3         1 VVV       0.153900
     19 H5          -2.5270     1.7980    -0.0460 ha         1 VVV       0.126000
     20 H8           3.9440    -1.3740     0.2390 ha         1 VVV       0.205000
     21 HN10         2.0950     2.3170    -0.0100 hn         1 VVV       0.341500
     22 H12         -1.0010    -3.0160    -1.8860 h1         1 VVV       0.036700
     23 H12A        -1.6210    -4.2660    -0.7880 h1         1 VVV       0.036700
     24 H12B        -2.6110    -2.8420    -1.1520 h1         1 VVV       0.036700
     25 H14         -5.2370    -0.6350     0.1210 h1         1 VVV       0.040700
     26 H14A        -4.3740     0.6900     0.9290 h1         1 VVV       0.040700
     27 H14B        -4.3970     0.5890    -0.8530 h1         1 VVV       0.040700
     28 H15          1.3500    -3.4670    -0.5760 hc         1 VVV       0.053033
     29 H15A         2.7940    -3.4080     0.4320 hc         1 VVV       0.053033
     30 H15B         1.2090    -3.3330     1.1960 hc         1 VVV       0.053033
     31 H18         -1.7890     3.8330    -1.0550 h1         1 VVV       0.044700
     32 H18A        -1.8220     3.9320     0.7260 h1         1 VVV       0.044700
     33 H18B        -0.7500     4.9960    -0.2060 h1         1 VVV       0.044700
@<TRIPOS>BOND
     1     1     2 ar  
     2     1     6 ar  
     3     1    11 1   
     4     2     3 ar  
     5     2     7 1   
     6     3     4 ar  
     7     3    10 1   
     8     4     5 ar  
     9     4    17 1   
    10     5     6 ar  
    11     5    19 1   
    12     6    13 1   
    13     7     8 2   
    14     7    15 1   
    15     8     9 1   
    16     8    20 1   
    17     9    10 1   
    18     9    16 2   
    19    10    21 1   
    20    11    12 1   
    21    12    22 1   
    22    12    23 1   
    23    12    24 1   
    24    13    14 1   
    25    14    25 1   
    26    14    26 1   
    27    14    27 1   
    28    15    28 1   
    29    15    29 1   
    30    15    30 1   
    31    17    18 1   
    32    18    31 1   
    33    18    32 1   
    34    18    33 1   
@<TRIPOS>SUBSTRUCTURE
     1 VVV         1 TEMP              0 ****  ****    0 ROOT
