@<TRIPOS>MOLECULE
VVX
   61    66     1     0     0
SMALL
No Charge or Current Charge


@<TRIPOS>ATOM
      1 C2          -7.7540    -1.5130    -2.2960 c3         1 VVX      -0.105600
      2 C1          -6.8500    -2.2450    -1.2790 c3         1 VVX       0.193500
      3 C           -5.9230    -3.2570    -1.9990 c3         1 VVX      -0.105600
      4 N           -6.1450    -1.3000    -0.3670 n3         1 VVX      -0.739600
      5 C25         -5.5170    -1.9550     0.8250 c6         1 VVX       0.173800
      6 C24         -4.9130    -0.9170     1.8240 c6         1 VVX       0.163300
      7 N1          -3.9220    -0.0070     1.1710 n3         1 VVX      -0.715600
      8 C4          -4.5450     0.6490    -0.0230 c6         1 VVX       0.163300
      9 C3          -5.1560    -0.3830    -1.0250 c6         1 VVX       0.173800
     10 C5          -3.3130     0.9540     2.1270 c3         1 VVX       0.147500
     11 C6          -2.1830     1.7710     1.5500 cc         1 VVX       0.105300
     12 O           -0.9740     1.1920     1.3300 os         1 VVX      -0.236000
     13 C8          -0.2220     2.2060     0.8110 cc         1 VVX       0.500500
     14 N2          -0.8610     3.3640     0.7020 nd         1 VVX      -0.674000
     15 C7          -2.1270     3.0880     1.1770 cd         1 VVX       0.228900
     16 C9           1.1790     1.9260     0.4430 ca         1 VVX      -0.062500
     17 C15          2.0450     2.9110    -0.0780 ca         1 VVX      -0.198900
     18 C14          1.8650     4.3180    -0.3690 cc         1 VVX       0.371800
     19 N4           2.9870     4.8780    -0.8530 nd         1 VVX      -0.521100
     20 N3           3.8970     3.8130    -0.8730 na         1 VVX      -0.063400
     21 C13          3.3350     2.6420    -0.4120 ca         1 VVX      -0.051200
     22 C12          3.8970     1.3700    -0.2690 ca         1 VVX      -0.102000
     23 C11          3.0810     0.3260     0.2410 cp         1 VVX       0.000000
     24 C10          1.7310     0.6260     0.5950 ca         1 VVX      -0.102000
     25 C16          3.6260    -1.0540     0.4270 cp         1 VVX       0.005000
     26 C23          4.4110    -1.7030    -0.5590 ca         1 VVX      -0.084800
     27 C22          4.8280    -1.3070    -1.8760 cc         1 VVX      -0.242200
     28 C21          5.5740    -2.3430    -2.4180 cd         1 VVX      -0.163100
     29 N5           5.6390    -3.3930    -1.4750 na         1 VVX      -0.223700
     30 C20          4.9130    -2.9680    -0.3730 ca         1 VVX      -0.051200
     31 C19          4.6740    -3.6900     0.8030 ca         1 VVX      -0.122000
     32 C18          3.8920    -3.0870     1.8070 ca         1 VVX      -0.094000
     33 C17          3.3740    -1.7860     1.6190 ca         1 VVX      -0.124000
     34 H21C        -8.3980    -2.2300    -2.8190 hc         1 VVX       0.037033
     35 H22C        -8.4010    -0.7890    -1.7860 hc         1 VVX       0.037033
     36 H23C        -7.1620    -0.9810    -3.0500 hc         1 VVX       0.037033
     37 H1          -7.5330    -2.8460    -0.6610 h1         1 VVX       0.050700
     38 HC1         -5.2230    -2.7480    -2.6710 hc         1 VVX       0.037033
     39 HC2         -5.3470    -3.8520    -1.2820 hc         1 VVX       0.037033
     40 HC3         -6.5180    -3.9540    -2.6000 hc         1 VVX       0.037033
     41 H251        -6.2590    -2.5650     1.3610 h1         1 VVX       0.039450
     42 H252        -4.7090    -2.6320     0.5110 h1         1 VVX       0.039450
     43 H31C        -4.3310    -0.9630    -1.4630 h1         1 VVX       0.039450
     44 H32C        -5.6270     0.1780    -1.8440 h1         1 VVX       0.039450
     45 H241        -5.7360    -0.3300     2.2570 h1         1 VVX       0.038950
     46 H242        -4.4380    -1.4640     2.6510 h1         1 VVX       0.038950
     47 H41C        -5.3420     1.3360     0.2980 h1         1 VVX       0.038950
     48 H42C        -3.8010     1.2520    -0.5630 h1         1 VVX       0.038950
     49 H51C        -4.0790     1.6430     2.5080 h1         1 VVX       0.051700
     50 H52C        -2.9160     0.4110     2.9950 h1         1 VVX       0.051700
     51 H7          -2.9100     3.8350     1.2200 h4         1 VVX       0.046100
     52 H10          1.1110    -0.1780     0.9830 ha         1 VVX       0.133000
     53 H14          1.0040     4.9640    -0.2610 h4         1 VVX       0.069800
     54 H3           4.8560     3.9340    -1.1980 hn         1 VVX       0.375000
     55 H12          4.9370     1.1910    -0.5270 ha         1 VVX       0.129000
     56 H17          2.7810    -1.3340     2.4110 ha         1 VVX       0.116000
     57 H22          4.5930    -0.3740    -2.3850 ha         1 VVX       0.207000
     58 H21          6.0520    -2.4140    -3.3940 h4         1 VVX       0.212000
     59 H5           6.1130    -4.2860    -1.5850 hn         1 VVX       0.349000
     60 H19          5.0750    -4.6910     0.9370 ha         1 VVX       0.114000
     61 H18          3.6880    -3.6240     2.7310 ha         1 VVX       0.113000
@<TRIPOS>BOND
     1     1     2 1   
     2     1    34 1   
     3     1    35 1   
     4     1    36 1   
     5     2     3 1   
     6     2     4 1   
     7     2    37 1   
     8     3    38 1   
     9     3    39 1   
    10     3    40 1   
    11     4     5 1   
    12     4     9 1   
    13     5     6 1   
    14     5    41 1   
    15     5    42 1   
    16     6     7 1   
    17     6    45 1   
    18     6    46 1   
    19     7     8 1   
    20     7    10 1   
    21     8     9 1   
    22     8    47 1   
    23     8    48 1   
    24     9    43 1   
    25     9    44 1   
    26    10    11 1   
    27    10    49 1   
    28    10    50 1   
    29    11    12 1   
    30    11    15 2   
    31    12    13 1   
    32    13    14 2   
    33    13    16 1   
    34    14    15 1   
    35    15    51 1   
    36    16    17 ar  
    37    16    24 ar  
    38    17    18 1   
    39    17    21 ar  
    40    18    19 2   
    41    18    53 1   
    42    19    20 1   
    43    20    21 1   
    44    20    54 1   
    45    21    22 ar  
    46    22    23 ar  
    47    22    55 1   
    48    23    24 ar  
    49    23    25 1   
    50    24    52 1   
    51    25    26 ar  
    52    25    33 ar  
    53    26    27 1   
    54    26    30 ar  
    55    27    28 2   
    56    27    57 1   
    57    28    29 1   
    58    28    58 1   
    59    29    30 1   
    60    29    59 1   
    61    30    31 ar  
    62    31    32 ar  
    63    31    60 1   
    64    32    33 ar  
    65    32    61 1   
    66    33    56 1   
@<TRIPOS>SUBSTRUCTURE
     1 VVX         1 TEMP              0 ****  ****    0 ROOT
