@<TRIPOS>MOLECULE
VVX
   61    66     1     0     0
SMALL
bcc


@<TRIPOS>ATOM
      1 C2          -7.3710    -1.6770    -2.1590 c3         1 VVX      -0.105600
      2 C1          -6.3280    -2.3360    -1.2640 c3         1 VVX       0.193500
      3 C           -5.3260    -3.1380    -2.1000 c3         1 VVX      -0.105600
      4 N           -5.7320    -1.3620    -0.3520 n3         1 VVX      -0.739600
      5 C25         -5.0260    -1.9630     0.7600 c6         1 VVX       0.173800
      6 C24         -4.6570    -0.9040     1.7820 c6         1 VVX       0.163300
      7 N1          -3.8330     0.1200     1.1670 n3         1 VVX      -0.715600
      8 C4          -4.5300     0.7150     0.0410 c6         1 VVX       0.163300
      9 C3          -4.9030    -0.3500    -0.9740 c6         1 VVX       0.173800
     10 C5          -3.4020     1.1130     2.1310 c3         1 VVX       0.147500
     11 C6          -2.2900     1.9440     1.6130 cc         1 VVX       0.149700
     12 O           -1.1150     1.3360     1.3100 os         1 VVX      -0.324800
     13 C8          -0.3000     2.3060     0.8730 cc         1 VVX       0.544900
     14 N2          -0.8550     3.4740     0.8740 nd         1 VVX      -0.674000
     15 C7          -2.1290     3.2580     1.3440 cd         1 VVX       0.228900
     16 C9           1.0500     1.9600     0.4680 ca         1 VVX      -0.062500
     17 C15          1.9100     2.9460    -0.0570 ca         1 VVX      -0.198900
     18 C14          1.8430     4.3350    -0.3400 cc         1 VVX       0.371800
     19 N4           2.9770     4.7590    -0.8430 nd         1 VVX      -0.521100
     20 N3           3.7920     3.7080    -0.9020 na         1 VVX      -0.013100
     21 C13          3.2080     2.5770    -0.4440 ca         1 VVX      -0.051200
     22 C12          3.6980     1.2750    -0.3280 ca         1 VVX      -0.120000
     23 C11          2.8460     0.3170     0.1890 cp         1 VVX       0.000000
     24 C10          1.5320     0.6710     0.5790 ca         1 VVX      -0.120000
     25 C16          3.2970    -1.0780     0.3640 cp         1 VVX       0.005000
     26 C23          4.0490    -1.7430    -0.6250 ca         1 VVX      -0.084800
     27 C22          4.5120    -1.3950    -1.9330 cc         1 VVX      -0.192200
     28 C21          5.1800    -2.4840    -2.4170 cd         1 VVX      -0.113100
     29 N5           5.1570    -3.4870    -1.4930 na         1 VVX      -0.173400
     30 C20          4.4700    -3.0740    -0.3900 ca         1 VVX      -0.051200
     31 C19          4.1680    -3.7630     0.7820 ca         1 VVX      -0.140000
     32 C18          3.4210    -3.0950     1.7310 ca         1 VVX      -0.112000
     33 C17          2.9920    -1.7760     1.5240 ca         1 VVX      -0.142000
     34 H21C        -7.9360    -2.4370    -2.7010 hc         1 VVX       0.037033
     35 H22C        -8.0750    -1.0890    -1.5700 hc         1 VVX       0.037033
     36 H23C        -6.9200    -1.0200    -2.9050 hc         1 VVX       0.037033
     37 H1          -6.8590    -3.0450    -0.6190 h1         1 VVX       0.050700
     38 HC1         -4.7780    -2.4980    -2.7950 hc         1 VVX       0.037033
     39 HC2         -4.5980    -3.6590    -1.4770 hc         1 VVX       0.037033
     40 HC3         -5.8470    -3.8910    -2.6920 hc         1 VVX       0.037033
     41 H251        -5.6710    -2.7050     1.2370 h1         1 VVX       0.039450
     42 H252        -4.1050    -2.4820     0.4470 h1         1 VVX       0.039450
     43 H31C        -3.9760    -0.7670    -1.4000 h1         1 VVX       0.039450
     44 H32C        -5.4470     0.1270    -1.7910 h1         1 VVX       0.039450
     45 H241        -5.5800    -0.4830     2.2150 h1         1 VVX       0.038950
     46 H242        -4.0970    -1.3690     2.5970 h1         1 VVX       0.038950
     47 H41C        -5.4430     1.2410     0.3690 h1         1 VVX       0.038950
     48 H42C        -3.8840     1.4520    -0.4410 h1         1 VVX       0.038950
     49 H51C        -4.2130     1.7890     2.4420 h1         1 VVX       0.051700
     50 H52C        -3.0710     0.5910     3.0350 h1         1 VVX       0.051700
     51 H7          -2.8450     4.0560     1.4570 h4         1 VVX       0.046100
     52 H10          0.8920    -0.1120     0.9630 ha         1 VVX       0.151000
     53 H14          1.0170     5.0110    -0.1910 h4         1 VVX       0.069800
     54 H3           4.7240     3.8160    -1.2690 hn         1 VVX       0.324700
     55 H12          4.7140     1.0340    -0.6100 ha         1 VVX       0.147000
     56 H17          2.4290    -1.2840     2.3070 ha         1 VVX       0.134000
     57 H22          4.3660    -0.4660    -2.4580 ha         1 VVX       0.157000
     58 H21          5.6760    -2.6220    -3.3630 h4         1 VVX       0.162000
     59 H5           5.5810    -4.3910    -1.6130 hn         1 VVX       0.298700
     60 H19          4.5020    -4.7800     0.9420 ha         1 VVX       0.132000
     61 H18          3.1650    -3.5910     2.6580 ha         1 VVX       0.131000
@<TRIPOS>BOND
     1     1     2 1   
     2     1    34 1   
     3     1    35 1   
     4     1    36 1   
     5     2     3 1   
     6     2     4 1   
     7     2    37 1   
     8     3    38 1   
     9     3    39 1   
    10     3    40 1   
    11     4     5 1   
    12     4     9 1   
    13     5     6 1   
    14     5    41 1   
    15     5    42 1   
    16     6     7 1   
    17     6    45 1   
    18     6    46 1   
    19     7     8 1   
    20     7    10 1   
    21     8     9 1   
    22     8    47 1   
    23     8    48 1   
    24     9    43 1   
    25     9    44 1   
    26    10    11 1   
    27    10    49 1   
    28    10    50 1   
    29    11    12 1   
    30    11    15 2   
    31    12    13 1   
    32    13    14 2   
    33    13    16 1   
    34    14    15 1   
    35    15    51 1   
    36    16    17 ar  
    37    16    24 ar  
    38    17    18 1   
    39    17    21 ar  
    40    18    19 2   
    41    18    53 1   
    42    19    20 1   
    43    20    21 1   
    44    20    54 1   
    45    21    22 ar  
    46    22    23 ar  
    47    22    55 1   
    48    23    24 ar  
    49    23    25 1   
    50    24    52 1   
    51    25    26 ar  
    52    25    33 ar  
    53    26    27 1   
    54    26    30 ar  
    55    27    28 2   
    56    27    57 1   
    57    28    29 1   
    58    28    58 1   
    59    29    30 1   
    60    29    59 1   
    61    30    31 ar  
    62    31    32 ar  
    63    31    60 1   
    64    32    33 ar  
    65    32    61 1   
    66    33    56 1   
@<TRIPOS>SUBSTRUCTURE
     1 VVX         1 TEMP              0 ****  ****    0 ROOT
