@<TRIPOS>MOLECULE
VVY
   30    31     1     0     0
SMALL
No Charge or Current Charge


@<TRIPOS>ATOM
      1 N1           5.9380     9.7270   -28.9120 n          1 VVY      -0.425800
      2 C4           5.0760    14.1360   -31.8610 ca         1 VVY      -0.169500
      3 C5           5.0090    15.3380   -32.5880 ca         1 VVY      -0.075000
      4 C6           3.8820    15.6220   -33.3770 ca         1 VVY      -0.147000
      5 C7           2.8190    14.7060   -33.4410 ca         1 VVY      -0.075000
      6 C8           2.8860    13.5040   -32.7140 ca         1 VVY      -0.169500
      7 C10          7.3290     8.1760   -27.8330 c5         1 VVY      -0.094400
      8 O1           3.8690     9.5960   -29.8810 o          1 VVY      -0.571100
      9 C1           4.9010    10.2410   -29.7210 c          1 VVY       0.606100
     10 C2           5.1270    11.6230   -30.3900 c3         1 VVY       0.079600
     11 O2           4.0180    12.0180   -31.2320 os         1 VVY      -0.311100
     12 C3           4.0090    13.2120   -31.9230 ca         1 VVY       0.138100
     13 C9           5.8520     8.4120   -28.2420 c5         1 VVY       0.102000
     14 C11          7.7860     9.6100   -27.4670 c5         1 VVY      -0.094400
     15 C12          7.2090    10.4370   -28.6450 c5         1 VVY       0.102000
     16 H3           5.9590    13.9410   -31.2580 ha         1 VVY       0.121500
     17 H4           5.8310    16.0500   -32.5400 ha         1 VVY       0.112000
     18 H5           3.8320    16.5520   -33.9390 ha         1 VVY       0.115000
     19 H6           1.9460    14.9250   -34.0520 ha         1 VVY       0.112000
     20 H7           2.0630    12.7950   -32.7640 ha         1 VVY       0.121500
     21 H11          7.4250     7.4710   -26.9990 hc         1 VVY       0.055700
     22 H10          7.9110     7.7770   -28.6710 hc         1 VVY       0.055700
     23 H2           6.0510    11.5590   -30.9770 h1         1 VVY       0.047700
     24 H1           5.2780    12.3560   -29.5880 h1         1 VVY       0.047700
     25 H9           5.1940     8.4680   -27.3650 h1         1 VVY       0.051200
     26 H8           5.4810     7.6230   -28.9100 h1         1 VVY       0.051200
     27 H13          8.8740     9.7030   -27.3830 hc         1 VVY       0.055700
     28 H12          7.3530     9.9300   -26.5110 hc         1 VVY       0.055700
     29 H14          7.8660    10.3970   -29.5240 h1         1 VVY       0.051200
     30 H15          7.0590    11.4880   -28.3640 h1         1 VVY       0.051200
@<TRIPOS>BOND
     1     1     9 1   
     2     1    13 1   
     3     1    15 1   
     4     2     3 ar  
     5     2    12 ar  
     6     2    16 1   
     7     3     4 ar  
     8     3    17 1   
     9     4     5 ar  
    10     4    18 1   
    11     5     6 ar  
    12     5    19 1   
    13     6    12 ar  
    14     6    20 1   
    15     7    13 1   
    16     7    14 1   
    17     7    21 1   
    18     7    22 1   
    19     8     9 2   
    20     9    10 1   
    21    10    11 1   
    22    10    23 1   
    23    10    24 1   
    24    11    12 1   
    25    13    25 1   
    26    13    26 1   
    27    14    15 1   
    28    14    27 1   
    29    14    28 1   
    30    15    29 1   
    31    15    30 1   
@<TRIPOS>SUBSTRUCTURE
     1 VVY         1 TEMP              0 ****  ****    0 ROOT
