@<TRIPOS>MOLECULE
VVY
   30    31     1     0     0
SMALL
bcc


@<TRIPOS>ATOM
      1 N1           5.8900     9.8170   -28.9680 n          1 VVY      -0.492800
      2 C4           5.1070    14.0810   -31.7610 ca         1 VVY      -0.187500
      3 C5           5.0210    15.2490   -32.5130 ca         1 VVY      -0.093000
      4 C6           3.9240    15.4990   -33.3210 ca         1 VVY      -0.165000
      5 C7           2.8970    14.5610   -33.3760 ca         1 VVY      -0.093000
      6 C8           2.9680    13.3950   -32.6360 ca         1 VVY      -0.187500
      7 C10          7.2490     8.2510   -27.8830 c5         1 VVY      -0.094400
      8 O1           3.8430     9.6970   -29.8990 o          1 VVY      -0.571100
      9 C1           4.8900    10.2980   -29.7150 c          1 VVY       0.673100
     10 C2           5.1530    11.6650   -30.3290 c3         1 VVY       0.056400
     11 O2           4.0550    11.9830   -31.1380 os         1 VVY      -0.287900
     12 C3           4.0760    13.1470   -31.8220 ca         1 VVY       0.138100
     13 C9           5.8180     8.4970   -28.3460 c5         1 VVY       0.102000
     14 C11          7.7650     9.6540   -27.5830 c5         1 VVY      -0.094400
     15 C12          7.1610    10.4880   -28.7060 c5         1 VVY       0.102000
     16 H3           5.9790    13.9210   -31.1410 ha         1 VVY       0.139500
     17 H4           5.8280    15.9670   -32.4570 ha         1 VVY       0.130000
     18 H5           3.8660    16.4100   -33.9020 ha         1 VVY       0.133000
     19 H6           2.0320    14.7390   -34.0020 ha         1 VVY       0.130000
     20 H7           2.1680    12.6650   -32.6800 ha         1 VVY       0.139500
     21 H11          7.2920     7.5820   -27.0240 hc         1 VVY       0.055700
     22 H10          7.8330     7.8000   -28.6880 hc         1 VVY       0.055700
     23 H2           6.0850    11.6410   -30.9070 h1         1 VVY       0.047700
     24 H1           5.2890    12.4050   -29.5290 h1         1 VVY       0.047700
     25 H9           5.1230     8.5110   -27.5020 h1         1 VVY       0.051200
     26 H8           5.4650     7.7490   -29.0560 h1         1 VVY       0.051200
     27 H13          8.8520     9.7240   -27.5620 hc         1 VVY       0.055700
     28 H12          7.3880     9.9980   -26.6170 hc         1 VVY       0.055700
     29 H14          7.8000    10.4710   -29.5940 h1         1 VVY       0.051200
     30 H15          7.0150    11.5290   -28.4160 h1         1 VVY       0.051200
@<TRIPOS>BOND
     1     1     9 1   
     2     1    13 1   
     3     1    15 1   
     4     2     3 ar  
     5     2    12 ar  
     6     2    16 1   
     7     3     4 ar  
     8     3    17 1   
     9     4     5 ar  
    10     4    18 1   
    11     5     6 ar  
    12     5    19 1   
    13     6    12 ar  
    14     6    20 1   
    15     7    13 1   
    16     7    14 1   
    17     7    21 1   
    18     7    22 1   
    19     8     9 2   
    20     9    10 1   
    21    10    11 1   
    22    10    23 1   
    23    10    24 1   
    24    11    12 1   
    25    13    25 1   
    26    13    26 1   
    27    14    15 1   
    28    14    27 1   
    29    14    28 1   
    30    15    29 1   
    31    15    30 1   
@<TRIPOS>SUBSTRUCTURE
     1 VVY         1 TEMP              0 ****  ****    0 ROOT
