@<TRIPOS>MOLECULE
VW1
   24    24     1     0     0
SMALL
bcc


@<TRIPOS>ATOM
      1 N1         -38.1070    38.7890   -14.6190 n1         1 VW1      -0.365800
      2 C4         -38.5370    41.2290   -10.4900 ca         1 VW1      -0.194500
      3 C5         -38.5750    40.2830   -11.4990 ca         1 VW1      -0.051500
      4 C6         -38.0300    40.5610   -12.7500 ca         1 VW1      -0.058000
      5 C7         -38.0730    39.5810   -13.7820 cg         1 VW1       0.238800
      6 C8         -37.4410    41.8060   -12.9870 ca         1 VW1      -0.051500
      7 C10        -39.8620    43.2690    -8.4250 c          1 VW1       0.644100
      8 C1         -37.7640    44.3660    -7.6400 c3         1 VW1      -0.088100
      9 C2         -38.3340    43.2530    -8.5020 c3         1 VW1       0.062100
     10 C3         -37.9460    42.4700   -10.7290 ca         1 VW1       0.157100
     11 C9         -37.4000    42.7500   -11.9850 ca         1 VW1      -0.194500
     12 N2         -40.4900    43.9850    -9.3610 nt         1 VW1      -0.660000
     13 H5         -38.9710    40.9720    -9.5340 ha         1 VW1       0.152000
     14 H6         -39.0330    39.3220   -11.3060 ha         1 VW1       0.146000
     15 H7         -37.0150    42.0320   -13.9550 ha         1 VW1       0.146000
     16 H1         -38.0830    44.2320    -6.6070 hc         1 VW1       0.057033
     17 H2         -36.6750    44.3380    -7.6620 hc         1 VW1       0.057033
     18 H3         -38.0990    45.3460    -7.9790 hc         1 VW1       0.057033
     19 H4         -37.9920    42.2890    -8.1140 h1         1 VW1       0.079700
     20 H8         -36.9450    43.7150   -12.1650 ha         1 VW1       0.152000
     21 H9         -41.4930    44.0760    -9.3370 hn         1 VW1       0.322000
     22 H10        -39.9990    44.4960   -10.0740 hn         1 VW1       0.322000
     23 O1         -37.8530    43.4570    -9.8220 os         1 VW1      -0.326900
     24 O2         -40.4250    42.6840    -7.5120 o          1 VW1      -0.601100
@<TRIPOS>BOND
     1     1     5 3   
     2     2     3 ar  
     3     2    10 ar  
     4     2    13 1   
     5     3     4 ar  
     6     3    14 1   
     7     4     5 1   
     8     4     6 ar  
     9     6    11 ar  
    10     6    15 1   
    11     7     9 1   
    12     7    12 1   
    13     7    24 2   
    14     8     9 1   
    15     8    16 1   
    16     8    17 1   
    17     8    18 1   
    18     9    19 1   
    19     9    23 1   
    20    10    11 ar  
    21    10    23 1   
    22    11    20 1   
    23    12    21 1   
    24    12    22 1   
@<TRIPOS>SUBSTRUCTURE
     1 VW1         1 TEMP              0 ****  ****    0 ROOT
