@<TRIPOS>MOLECULE
VW1
   24    24     1     0     0
SMALL
No Charge or Current Charge


@<TRIPOS>ATOM
      1 N1         -38.2000    38.7610   -14.7280 n1         1 VW1      -0.455000
      2 C4         -38.4150    41.1300   -10.4710 ca         1 VW1      -0.176500
      3 C5         -38.5010    40.1840   -11.5090 ca         1 VW1      -0.033500
      4 C6         -38.0430    40.5070   -12.8010 ca         1 VW1      -0.058000
      5 C7         -38.1300    39.5400   -13.8600 cg         1 VW1       0.328000
      6 C8         -37.4960    41.7800   -13.0500 ca         1 VW1      -0.033500
      7 C10        -39.8920    43.2420    -8.4780 c          1 VW1       0.577100
      8 C1         -37.8040    44.4400    -7.6040 c3         1 VW1      -0.088100
      9 C2         -38.3380    43.2480    -8.4270 c3         1 VW1       0.085300
     10 C3         -37.8720    42.4090   -10.7220 ca         1 VW1       0.157100
     11 C9         -37.4120    42.7230   -12.0100 ca         1 VW1      -0.176500
     12 N2         -40.4790    44.1720    -9.2690 nt         1 VW1      -0.593000
     13 H5         -38.7700    40.8480    -9.4850 ha         1 VW1       0.134000
     14 H6         -38.9210    39.2010   -11.3070 ha         1 VW1       0.128000
     15 H7         -37.1360    42.0390   -14.0440 ha         1 VW1       0.128000
     16 H1         -38.1970    44.4060    -6.5810 hc         1 VW1       0.057033
     17 H2         -36.7090    44.4070    -7.5480 hc         1 VW1       0.057033
     18 H3         -38.0990    45.3950    -8.0540 hc         1 VW1       0.057033
     19 H4         -38.0090    42.3180    -7.9460 h1         1 VW1       0.079700
     20 H8         -36.9880    43.7050   -12.2050 ha         1 VW1       0.134000
     21 H9         -41.4850    44.2050    -9.3360 hn         1 VW1       0.322000
     22 H10        -39.9050    44.8020    -9.8100 hn         1 VW1       0.322000
     23 O1         -37.7590    43.3810    -9.7480 os         1 VW1      -0.350100
     24 O2         -40.5830    42.4600    -7.8430 o          1 VW1      -0.601100
@<TRIPOS>BOND
     1     1     5 3   
     2     2     3 ar  
     3     2    10 ar  
     4     2    13 1   
     5     3     4 ar  
     6     3    14 1   
     7     4     5 1   
     8     4     6 ar  
     9     6    11 ar  
    10     6    15 1   
    11     7     9 1   
    12     7    12 1   
    13     7    24 2   
    14     8     9 1   
    15     8    16 1   
    16     8    17 1   
    17     8    18 1   
    18     9    19 1   
    19     9    23 1   
    20    10    11 ar  
    21    10    23 1   
    22    11    20 1   
    23    12    21 1   
    24    12    22 1   
@<TRIPOS>SUBSTRUCTURE
     1 VW1         1 TEMP              0 ****  ****    0 ROOT
