@<TRIPOS>MOLECULE
VW2
   48    50     1     0     0
SMALL
abcg2


@<TRIPOS>ATOM
      1 N1          44.5900   -34.3960    23.3900 n          1 VW2      -0.415800
      2 C4          44.7040   -37.7200    21.6150 c3         1 VW2      -0.077100
      3 C5          43.8120   -33.5380    22.5010 c3         1 VW2       0.101000
      4 C6          44.5820   -32.9540    21.3330 c3         1 VW2       0.145600
      5 C7          46.4150   -31.4240    21.1260 ca         1 VW2       0.129100
      6 C8          46.4120   -31.2590    19.7400 ca         1 VW2      -0.160000
      7 C10         48.6930   -30.4760    19.8060 ca         1 VW2      -0.120000
      8 C1          44.9770   -33.8030    24.6510 c3         1 VW2       0.084300
      9 C2          44.8430   -35.6940    23.1420 c          1 VW2       0.602100
     10 O1          45.4910   -36.3900    23.9010 o          1 VW2      -0.595100
     11 C3          44.3110   -36.2610    21.8400 c3         1 VW2      -0.160400
     12 O2          45.3270   -31.8240    21.8360 os         1 VW2      -0.356100
     13 C9          47.5440   -30.7940    19.0860 ca         1 VW2      -0.079000
     14 C11         48.7100   -30.6460    21.1850 ca         1 VW2      -0.093000
     15 C12         47.5820   -31.1260    21.8310 ca         1 VW2       0.062100
     16 C13         47.5660   -30.3330    24.0640 cc         1 VW2       0.196100
     17 C14         47.2010   -29.0610    23.7470 cd         1 VW2      -0.211000
     18 C15         47.1850   -28.0890    24.7810 cd         1 VW2       0.136000
     19 C16         47.5110   -28.3620    26.0610 cc         1 VW2      -0.149000
     20 C17         47.9150   -30.6670    25.3930 cc         1 VW2      -0.144000
     21 C18         48.3340   -31.8260    26.0020 cd         1 VW2      -0.168000
     22 C19         48.5450   -31.5070    27.3660 cd         1 VW2      -0.034700
     23 C20         48.9810   -32.4040    28.3710 ch         1 VW2       0.314700
     24 C21         48.2640   -30.1630    27.5650 cc         1 VW2      -0.179100
     25 N2          47.8780   -29.6530    26.3650 na         1 VW2       0.166100
     26 N3          49.3370   -33.1470    29.1860 n1         1 VW2      -0.460000
     27 CL1         46.7080   -26.4720    24.3690 cl         1 VW2      -0.181000
     28 H5          44.2360   -38.0960    20.6940 hc         1 VW2       0.043700
     29 H6          45.7940   -37.8350    21.5280 hc         1 VW2       0.043700
     30 H19         44.3800   -38.3480    22.4530 hc         1 VW2       0.043700
     31 H8          42.9380   -34.0580    22.1400 h1         1 VW2       0.062200
     32 H7          43.4570   -32.7150    23.0880 h1         1 VW2       0.062200
     33 H9          45.2830   -33.6670    20.9300 h1         1 VW2       0.047200
     34 H10         43.9050   -32.6230    20.5520 h1         1 VW2       0.047200
     35 H11         45.5150   -31.4880    19.1840 ha         1 VW2       0.122000
     36 H13         49.5740   -30.1090    19.2970 ha         1 VW2       0.124000
     37 H1          45.4910   -34.5420    25.2540 h1         1 VW2       0.049700
     38 H2          45.6000   -32.9420    24.4730 h1         1 VW2       0.049700
     39 H3          44.0820   -33.4770    25.1600 h1         1 VW2       0.049700
     40 H4          44.6660   -35.6520    21.0030 hc         1 VW2       0.049200
     41 H20         43.2190   -36.1540    21.8400 hc         1 VW2       0.049200
     42 H12         47.5290   -30.6720    18.0110 ha         1 VW2       0.121000
     43 H14         49.5920   -30.4160    21.7680 ha         1 VW2       0.134000
     44 H15         46.9420   -28.7880    22.7420 ha         1 VW2       0.149000
     45 H16         47.5100   -27.6500    26.8660 h4         1 VW2       0.160000
     46 H17         48.4750   -32.7850    25.5360 ha         1 VW2       0.230000
     47 H18         48.3160   -29.5550    28.4530 h4         1 VW2       0.235000
     48 O3          47.6240   -31.3780    23.1980 os         1 VW2      -0.223200
@<TRIPOS>BOND
     1     1     3 1   
     2     1     8 1   
     3     1     9 1   
     4     2    11 1   
     5     2    28 1   
     6     2    29 1   
     7     2    30 1   
     8     3     4 1   
     9     3    31 1   
    10     3    32 1   
    11     4    12 1   
    12     4    33 1   
    13     4    34 1   
    14     5     6 ar  
    15     5    12 1   
    16     5    15 ar  
    17     6    13 ar  
    18     6    35 1   
    19     7    13 ar  
    20     7    14 ar  
    21     7    36 1   
    22     8    37 1   
    23     8    38 1   
    24     8    39 1   
    25     9    10 2   
    26     9    11 1   
    27    11    40 1   
    28    11    41 1   
    29    13    42 1   
    30    14    15 ar  
    31    14    43 1   
    32    15    48 1   
    33    16    17 2   
    34    16    20 1   
    35    16    48 1   
    36    17    18 1   
    37    17    44 1   
    38    18    19 2   
    39    18    27 1   
    40    19    25 1   
    41    19    45 1   
    42    20    21 2   
    43    20    25 1   
    44    21    22 1   
    45    21    46 1   
    46    22    23 1   
    47    22    24 2   
    48    23    26 3   
    49    24    25 1   
    50    24    47 1   
@<TRIPOS>SUBSTRUCTURE
     1 VW2         1 TEMP              0 ****  ****    0 ROOT
