@<TRIPOS>MOLECULE
VW2
   48    50     1     0     0
SMALL
No Charge or Current Charge


@<TRIPOS>ATOM
      1 N1          44.1510   -34.0260    23.0680 n          1 VW2      -0.415800
      2 C4          45.9320   -37.4760    23.5700 c3         1 VW2      -0.077100
      3 C5          43.9530   -33.9140    21.5930 c3         1 VW2       0.101000
      4 C6          45.1300   -33.2490    20.8420 c3         1 VW2       0.145600
      5 C7          46.4280   -31.1570    21.0840 ca         1 VW2       0.129100
      6 C8          47.2790   -31.4640    19.9990 ca         1 VW2      -0.160000
      7 C10         48.6870   -29.5570    20.5570 ca         1 VW2      -0.120000
      8 C1          43.6520   -32.9050    23.9010 c3         1 VW2       0.084300
      9 C2          44.6540   -35.1940    23.6920 c          1 VW2       0.602100
     10 O1          44.6680   -35.2800    24.9140 o          1 VW2      -0.595100
     11 C3          45.1950   -36.3460    22.8160 c3         1 VW2      -0.160400
     12 O2          45.3320   -31.9380    21.3980 os         1 VW2      -0.356100
     13 C9          48.4040   -30.6630    19.7390 ca         1 VW2      -0.079000
     14 C11         47.8470   -29.2470    21.6400 ca         1 VW2      -0.093000
     15 C12         46.7160   -30.0500    21.9110 ca         1 VW2       0.062100
     16 C13         46.6020   -29.6580    24.1190 cc         1 VW2       0.196100
     17 C14         46.7100   -28.4120    24.6780 cd         1 VW2      -0.211000
     18 C15         47.4720   -28.2880    25.9050 cd         1 VW2       0.136000
     19 C16         48.0920   -29.3690    26.5460 cc         1 VW2      -0.149000
     20 C17         47.2130   -30.7550    24.7640 cc         1 VW2      -0.144000
     21 C18         47.2640   -32.0900    24.4720 cd         1 VW2      -0.168000
     22 C19         48.0320   -32.7380    25.4930 cd         1 VW2      -0.034700
     23 C20         48.3320   -34.1270    25.5700 ch         1 VW2       0.314700
     24 C21         48.4480   -31.7850    26.4100 cc         1 VW2      -0.179100
     25 N2          47.9230   -30.6050    25.9150 na         1 VW2       0.166100
     26 N3          48.6090   -35.2600    25.6380 n1         1 VW2      -0.460000
     27 Cl1         47.5940   -26.6970    26.5790 cl         1 VW2      -0.181000
     28 H5          46.2790   -38.2430    22.8660 hc         1 VW2       0.043700
     29 H6          46.8050   -37.0820    24.1030 hc         1 VW2       0.043700
     30 H19         45.2680   -37.9570    24.2980 hc         1 VW2       0.043700
     31 H8          43.7620   -34.9010    21.1560 h1         1 VW2       0.062200
     32 H7          43.0490   -33.3210    21.4050 h1         1 VW2       0.062200
     33 H9          46.0310   -33.8630    20.9670 h1         1 VW2       0.047200
     34 H10         44.8950   -33.1870    19.7720 h1         1 VW2       0.047200
     35 H11         47.0800   -32.3120    19.3510 ha         1 VW2       0.122000
     36 H13         49.5570   -28.9370    20.3490 ha         1 VW2       0.124000
     37 H1          44.4190   -32.6110    24.6300 h1         1 VW2       0.049700
     38 H2          43.4110   -32.0350    23.2780 h1         1 VW2       0.049700
     39 H3          42.7480   -33.2180    24.4390 h1         1 VW2       0.049700
     40 H4          45.8230   -35.9240    22.0240 hc         1 VW2       0.049200
     41 H20         44.3550   -36.7500    22.2400 hc         1 VW2       0.049200
     42 H12         49.0570   -30.8990    18.9010 ha         1 VW2       0.121000
     43 H14         48.0730   -28.3800    22.2570 ha         1 VW2       0.134000
     44 H15         46.2420   -27.5490    24.2160 ha         1 VW2       0.149000
     45 H16         48.6680   -29.3240    27.4590 h4         1 VW2       0.160000
     46 H17         46.8010   -32.5760    23.6160 ha         1 VW2       0.230000
     47 H18         49.0390   -31.8520    27.3160 h4         1 VW2       0.235000
     48 O3          45.8670   -29.7690    22.9690 os         1 VW2      -0.223200
@<TRIPOS>BOND
     1     1     3 1   
     2     1     8 1   
     3     1     9 1   
     4     2    11 1   
     5     2    28 1   
     6     2    29 1   
     7     2    30 1   
     8     3     4 1   
     9     3    31 1   
    10     3    32 1   
    11     4    12 1   
    12     4    33 1   
    13     4    34 1   
    14     5     6 ar  
    15     5    12 1   
    16     5    15 ar  
    17     6    13 ar  
    18     6    35 1   
    19     7    13 ar  
    20     7    14 ar  
    21     7    36 1   
    22     8    37 1   
    23     8    38 1   
    24     8    39 1   
    25     9    10 2   
    26     9    11 1   
    27    11    40 1   
    28    11    41 1   
    29    13    42 1   
    30    14    15 ar  
    31    14    43 1   
    32    15    48 1   
    33    16    17 2   
    34    16    20 1   
    35    16    48 1   
    36    17    18 1   
    37    17    44 1   
    38    18    19 2   
    39    18    27 1   
    40    19    25 1   
    41    19    45 1   
    42    20    21 2   
    43    20    25 1   
    44    21    22 1   
    45    21    46 1   
    46    22    23 1   
    47    22    24 2   
    48    23    26 3   
    49    24    25 1   
    50    24    47 1   
@<TRIPOS>SUBSTRUCTURE
     1 VW2         1 TEMP              0 ****  ****    0 ROOT
