@<TRIPOS>MOLECULE
VW3
   24    24     1     0     0
SMALL
No Charge or Current Charge


@<TRIPOS>ATOM
      1 C7          27.4900    19.9110    41.4460 c3         1 VW3      -0.146400
      2 C8          28.6350    19.6610    42.4240 c          1 VW3       0.591100
      3 O1          28.4930    19.0320    43.4660 o          1 VW3      -0.627100
      4 C1          29.5490    15.8600    37.4050 ca         1 VW3      -0.074500
      5 C5          27.2880    15.2150    38.0330 ca         1 VW3      -0.074500
      6 C6          27.1480    18.6350    40.6600 c3         1 VW3       0.172600
      7 C4          27.2080    16.3220    38.8970 ca         1 VW3      -0.166000
      8 C3          28.3050    17.2040    39.0160 ca         1 VW3       0.140100
      9 C2          29.4700    16.9670    38.2680 ca         1 VW3      -0.166000
     10 N           29.8530    20.2380    42.1010 ns         1 VW3      -0.375400
     11 O2          30.9480    20.2200    43.0470 oh         1 VW3      -0.443100
     12 O           28.2880    18.3060    39.8460 os         1 VW3      -0.364100
     13 C           28.4570    14.9840    37.2880 ca         1 VW3      -0.145000
     14 H1          27.7550    20.7000    40.7320 hc         1 VW3       0.074200
     15 H2          26.6010    20.2060    42.0140 hc         1 VW3       0.074200
     16 H4          26.4430    14.5350    37.9410 ha         1 VW3       0.113000
     17 H5          26.2660    18.8210    40.0320 h1         1 VW3       0.052700
     18 H6          26.9150    17.8200    41.3580 h1         1 VW3       0.052700
     19 H7          26.2930    16.4770    39.4610 ha         1 VW3       0.120500
     20 H8          30.3150    17.6440    38.3580 ha         1 VW3       0.120500
     21 H9          29.9330    20.8760    41.3100 hn         1 VW3       0.363500
     22 H10         30.5140    19.8790    43.8690 ho         1 VW3       0.479000
     23 H11         28.5160    14.1270    36.6210 ha         1 VW3       0.116000
     24 H3          30.4550    15.6820    36.8280 ha         1 VW3       0.113000
@<TRIPOS>BOND
     1     1     2 1   
     2     1     6 1   
     3     1    14 1   
     4     1    15 1   
     5     2     3 2   
     6     2    10 1   
     7     4     9 ar  
     8     4    13 ar  
     9     4    24 1   
    10     5     7 ar  
    11     5    13 ar  
    12     5    16 1   
    13     6    12 1   
    14     6    17 1   
    15     6    18 1   
    16     7     8 ar  
    17     7    19 1   
    18     8     9 ar  
    19     8    12 1   
    20     9    20 1   
    21    10    11 1   
    22    10    21 1   
    23    11    22 1   
    24    13    23 1   
@<TRIPOS>SUBSTRUCTURE
     1 VW3         1 TEMP              0 ****  ****    0 ROOT
