@<TRIPOS>MOLECULE
VW3
   24    24     1     0     0
SMALL
abcg2


@<TRIPOS>ATOM
      1 C7          27.5340    19.8890    41.3880 c3         1 VW3      -0.146400
      2 C8          28.6660    19.6550    42.3590 c          1 VW3       0.591100
      3 O1          28.6610    18.7680    43.2230 o          1 VW3      -0.627100
      4 C1          29.5170    15.8350    37.4460 ca         1 VW3      -0.074500
      5 C5          27.2820    15.2380    38.0860 ca         1 VW3      -0.074500
      6 C6          27.2040    18.6310    40.6060 c3         1 VW3       0.172600
      7 C4          27.2120    16.3490    38.9260 ca         1 VW3      -0.166000
      8 C3          28.3090    17.2050    39.0200 ca         1 VW3       0.140100
      9 C2          29.4630    16.9440    38.2760 ca         1 VW3      -0.166000
     10 N           29.7110    20.4760    42.2470 ns         1 VW3      -0.375400
     11 O2          30.7890    20.3190    43.1100 oh         1 VW3      -0.443100
     12 O           28.3470    18.3170    39.8070 os         1 VW3      -0.364100
     13 C           28.4250    14.9730    37.3440 ca         1 VW3      -0.145000
     14 H1          27.7670    20.7060    40.7050 hc         1 VW3       0.074200
     15 H2          26.6530    20.1740    41.9680 hc         1 VW3       0.074200
     16 H4          26.4260    14.5770    38.0180 ha         1 VW3       0.113000
     17 H5          26.3340    18.8030    39.9680 h1         1 VW3       0.052700
     18 H6          26.9870    17.8040    41.2870 h1         1 VW3       0.052700
     19 H7          26.3110    16.5320    39.4930 ha         1 VW3       0.120500
     20 H8          30.3050    17.6200    38.3630 ha         1 VW3       0.120500
     21 H9          29.8380    21.2100    41.5690 hn         1 VW3       0.363500
     22 H10         30.5100    19.5470    43.6440 ho         1 VW3       0.479000
     23 H11         28.4700    14.1090    36.6940 ha         1 VW3       0.116000
     24 H3          30.4170    15.6430    36.8740 ha         1 VW3       0.113000
@<TRIPOS>BOND
     1     1     2 1   
     2     1     6 1   
     3     1    14 1   
     4     1    15 1   
     5     2     3 2   
     6     2    10 1   
     7     4     9 ar  
     8     4    13 ar  
     9     4    24 1   
    10     5     7 ar  
    11     5    13 ar  
    12     5    16 1   
    13     6    12 1   
    14     6    17 1   
    15     6    18 1   
    16     7     8 ar  
    17     7    19 1   
    18     8     9 ar  
    19     8    12 1   
    20     9    20 1   
    21    10    11 1   
    22    10    21 1   
    23    11    22 1   
    24    13    23 1   
@<TRIPOS>SUBSTRUCTURE
     1 VW3         1 TEMP              0 ****  ****    0 ROOT
