@<TRIPOS>MOLECULE
VW4
   26    26     1     0     0
SMALL
bcc


@<TRIPOS>ATOM
      1 N1         -17.8580    38.9900   -23.5650 n8         1 VW4      -0.885700
      2 C4         -17.2190    42.2770   -20.2150 ca         1 VW4      -0.115300
      3 C5         -17.4590    41.5810   -19.0330 ca         1 VW4      -0.106500
      4 C6         -16.4820    41.4850   -18.0540 ca         1 VW4      -0.124500
      5 C7         -15.2430    42.0870   -18.2430 ca         1 VW4      -0.115000
      6 C8         -14.9940    42.7840   -19.4160 ca         1 VW4      -0.124500
      7 C1         -19.5540    43.0550   -20.7480 c3         1 VW4      -0.081100
      8 C2         -18.2830    42.3920   -21.2820 c3         1 VW4       0.026600
      9 C3         -18.6560    41.0410   -21.8950 c3         1 VW4      -0.233600
     10 S1         -17.2480    40.1700   -22.5880 s6         1 VW4       1.201900
     11 O1         -16.5320    39.4860   -21.5240 o          1 VW4      -0.589300
     12 O2         -16.5290    41.0940   -23.4550 o          1 VW4      -0.589300
     13 C9         -15.9760    42.8730   -20.3950 ca         1 VW4      -0.106500
     14 H8         -18.3700    38.2730   -23.0650 hn         1 VW4       0.417300
     15 H7         -18.3960    39.3440   -24.3480 hn         1 VW4       0.417300
     16 H10        -16.6860    40.9380   -17.1420 ha         1 VW4       0.131500
     17 H11        -14.4800    42.0140   -17.4800 ha         1 VW4       0.130000
     18 H12        -14.0330    43.2580   -19.5730 ha         1 VW4       0.131500
     19 H3         -19.3290    44.0400   -20.3410 hc         1 VW4       0.037700
     20 H2         -20.2910    43.1800   -21.5430 hc         1 VW4       0.037700
     21 H1         -20.0130    42.4590   -19.9580 hc         1 VW4       0.037700
     22 H4         -17.8920    43.0200   -22.0870 hc         1 VW4       0.069700
     23 H6         -19.3640    41.1880   -22.7140 h1         1 VW4       0.084700
     24 H5         -19.1160    40.3680   -21.1690 h1         1 VW4       0.084700
     25 H13        -15.7710    43.4160   -21.3110 ha         1 VW4       0.130000
     26 H9         -18.4180    41.1020   -18.8680 ha         1 VW4       0.130000
@<TRIPOS>BOND
     1     1    10 1   
     2     1    14 1   
     3     1    15 1   
     4     2     3 ar  
     5     2     8 1   
     6     2    13 ar  
     7     3     4 ar  
     8     3    26 1   
     9     4     5 ar  
    10     4    16 1   
    11     5     6 ar  
    12     5    17 1   
    13     6    13 ar  
    14     6    18 1   
    15     7     8 1   
    16     7    19 1   
    17     7    20 1   
    18     7    21 1   
    19     8     9 1   
    20     8    22 1   
    21     9    10 1   
    22     9    23 1   
    23     9    24 1   
    24    10    11 2   
    25    10    12 2   
    26    13    25 1   
@<TRIPOS>SUBSTRUCTURE
     1 VW4         1 TEMP              0 ****  ****    0 ROOT
