@<TRIPOS>MOLECULE
VW4
   26    26     1     0     0
SMALL
No Charge or Current Charge


@<TRIPOS>ATOM
      1 N1         -18.2530    39.0390   -23.4700 n8         1 VW4      -0.996100
      2 C4         -17.2380    42.2710   -20.1780 ca         1 VW4      -0.115300
      3 C5         -17.3830    41.4530   -19.0370 ca         1 VW4      -0.088500
      4 C6         -16.3360    41.3370   -18.1060 ca         1 VW4      -0.106500
      5 C7         -15.1360    42.0390   -18.3050 ca         1 VW4      -0.097000
      6 C8         -14.9840    42.8570   -19.4370 ca         1 VW4      -0.106500
      7 C1         -19.6040    43.0860   -20.5580 c3         1 VW4      -0.081100
      8 C2         -18.3730    42.4060   -21.1960 c3         1 VW4       0.026600
      9 C3         -18.7650    41.0470   -21.8310 c3         1 VW4      -0.344400
     10 S1         -17.4470    40.2860   -22.7880 s6         1 VW4       1.171100
     11 O1         -16.4480    39.6700   -21.9180 o          1 VW4      -0.518500
     12 O2         -17.0500    41.1490   -23.8980 o          1 VW4      -0.518500
     13 C9         -16.0300    42.9740   -20.3680 ca         1 VW4      -0.088500
     14 H8         -17.9670    39.1260   -24.4430 hn         1 VW4       0.472500
     15 H7         -17.6940    38.2490   -23.1560 hn         1 VW4       0.472500
     16 H10        -16.4560    40.7040   -17.2300 ha         1 VW4       0.113500
     17 H11        -14.3260    41.9490   -17.5850 ha         1 VW4       0.112000
     18 H12        -14.0550    43.4020   -19.5920 ha         1 VW4       0.113500
     19 H3         -19.3270    44.0560   -20.1280 hc         1 VW4       0.037700
     20 H2         -20.3840    43.2580   -21.3090 hc         1 VW4       0.037700
     21 H1         -20.0290    42.4660   -19.7600 hc         1 VW4       0.037700
     22 H4         -18.0470    43.0670   -22.0110 hc         1 VW4       0.069700
     23 H6         -19.5940    41.1890   -22.5320 h1         1 VW4       0.084700
     24 H5         -19.0620    40.3210   -21.0680 h1         1 VW4       0.084700
     25 H13        -15.8970    43.6120   -21.2390 ha         1 VW4       0.112000
     26 H9         -18.3070    40.9040   -18.8690 ha         1 VW4       0.112000
@<TRIPOS>BOND
     1     1    10 1   
     2     1    14 1   
     3     1    15 1   
     4     2     3 ar  
     5     2     8 1   
     6     2    13 ar  
     7     3     4 ar  
     8     3    26 1   
     9     4     5 ar  
    10     4    16 1   
    11     5     6 ar  
    12     5    17 1   
    13     6    13 ar  
    14     6    18 1   
    15     7     8 1   
    16     7    19 1   
    17     7    20 1   
    18     7    21 1   
    19     8     9 1   
    20     8    22 1   
    21     9    10 1   
    22     9    23 1   
    23     9    24 1   
    24    10    11 2   
    25    10    12 2   
    26    13    25 1   
@<TRIPOS>SUBSTRUCTURE
     1 VW4         1 TEMP              0 ****  ****    0 ROOT
