@<TRIPOS>MOLECULE
VW7
   31    32     1     0     0
SMALL
abcg2


@<TRIPOS>ATOM
      1 N1          -6.7740     5.8040   -48.2180 ns         1 VW7      -0.162000
      2 C4          -6.3070     6.3160   -45.8870 ca         1 VW7      -0.149000
      3 C5          -6.7750     6.4860   -44.5930 ca         1 VW7      -0.057000
      4 C6          -8.1110     6.3240   -44.2660 ca         1 VW7      -0.156300
      5 C7          -8.5860     6.5140   -42.8550 c3         1 VW7      -0.038800
      6 C8          -9.0180     5.9790   -45.2880 ca         1 VW7       0.323000
      7 C10        -10.9960     5.6400   -47.2910 c6         1 VW7      -0.083400
      8 C1          -5.4810     5.0950   -50.1240 c3         1 VW7      -0.182100
      9 C2          -5.6620     5.1440   -48.6270 c          1 VW7       0.605100
     10 O1          -4.8570     4.6370   -47.8650 o          1 VW7      -0.583100
     11 C3          -7.2070     5.9730   -46.8880 ca         1 VW7       0.003000
     12 N2         -10.3560     5.8320   -44.9780 nu         1 VW7      -0.938200
     13 C9         -11.2150     5.1100   -45.8900 c6         1 VW7       0.202800
     14 C11         -9.5430     5.4480   -47.7060 c6         1 VW7      -0.016100
     15 C12         -8.5700     5.8120   -46.6090 ca         1 VW7      -0.176300
     16 H4          -7.4070     6.1040   -48.9410 hn         1 VW7       0.149000
     17 H5          -5.2620     6.4700   -46.1080 ha         1 VW7       0.135000
     18 H6          -6.0740     6.7560   -43.8120 ha         1 VW7       0.112000
     19 H7          -8.9740     5.5880   -42.4210 hc         1 VW7       0.037700
     20 H8          -7.7700     6.8470   -42.2160 hc         1 VW7       0.037700
     21 H9          -9.3840     7.2570   -42.7850 hc         1 VW7       0.037700
     22 H14        -11.2550     6.7020   -47.3140 hc         1 VW7       0.051200
     23 H13        -11.6540     5.1320   -47.9960 hc         1 VW7       0.051200
     24 H2          -5.2540     4.0750   -50.4280 hc         1 VW7       0.060700
     25 H1          -6.3480     5.4420   -50.6850 hc         1 VW7       0.060700
     26 H3          -4.6270     5.7140   -50.4020 hc         1 VW7       0.060700
     27 H10        -10.5460     5.6400   -44.0080 hn         1 VW7       0.463000
     28 H11        -12.2490     5.2570   -45.5760 h1         1 VW7       0.036200
     29 H12        -11.0210     4.0280   -45.8690 h1         1 VW7       0.036200
     30 H15         -9.3770     4.4100   -48.0130 hc         1 VW7       0.039700
     31 H16         -9.3660     6.0520   -48.6010 hc         1 VW7       0.039700
@<TRIPOS>BOND
     1     1     9 1   
     2     1    11 1   
     3     1    16 1   
     4     2     3 ar  
     5     2    11 ar  
     6     2    17 1   
     7     3     4 ar  
     8     3    18 1   
     9     4     5 1   
    10     4     6 ar  
    11     5    19 1   
    12     5    20 1   
    13     5    21 1   
    14     6    12 1   
    15     6    15 ar  
    16     7    13 1   
    17     7    14 1   
    18     7    22 1   
    19     7    23 1   
    20     8     9 1   
    21     8    24 1   
    22     8    25 1   
    23     8    26 1   
    24     9    10 2   
    25    11    15 ar  
    26    12    13 1   
    27    12    27 1   
    28    13    28 1   
    29    13    29 1   
    30    14    15 1   
    31    14    30 1   
    32    14    31 1   
@<TRIPOS>SUBSTRUCTURE
     1 VW7         1 TEMP              0 ****  ****    0 ROOT
