@<TRIPOS>MOLECULE
VW7
   31    32     1     0     0
SMALL
No Charge or Current Charge


@<TRIPOS>ATOM
      1 N1          -6.7000     5.5000   -48.1630 ns         1 VW7      -0.162000
      2 C4          -6.2680     6.0820   -45.7890 ca         1 VW7      -0.149000
      3 C5          -6.7450     6.3240   -44.4930 ca         1 VW7      -0.057000
      4 C6          -8.1190     6.2520   -44.2130 ca         1 VW7      -0.156300
      5 C7          -8.6060     6.5130   -42.7870 c3         1 VW7      -0.038800
      6 C8          -9.0180     5.9340   -45.2540 ca         1 VW7       0.323000
      7 C10        -11.0110     5.6740   -47.3340 c6         1 VW7      -0.083400
      8 C1          -5.4400     5.1960   -50.2350 c3         1 VW7      -0.182100
      9 C2          -5.4750     5.6850   -48.7890 c          1 VW7       0.605100
     10 O1          -4.4950     6.2020   -48.2670 o          1 VW7      -0.583100
     11 C3          -7.1560     5.7730   -46.8410 ca         1 VW7       0.003000
     12 N2         -10.3900     5.8490   -44.9890 nu         1 VW7      -0.938200
     13 C9         -11.3390     5.2060   -45.9050 c6         1 VW7       0.202800
     14 C11         -9.5420     5.3440   -47.6950 c6         1 VW7      -0.016100
     15 C12         -8.5440     5.7010   -46.5700 ca         1 VW7      -0.176300
     16 H4          -7.4060     5.0850   -48.7570 hn         1 VW7       0.149000
     17 H5          -5.1960     6.1270   -45.9520 ha         1 VW7       0.135000
     18 H6          -6.0360     6.5600   -43.7020 ha         1 VW7       0.112000
     19 H7          -9.1140     5.6330   -42.3750 hc         1 VW7       0.037700
     20 H8          -7.7770     6.7570   -42.1110 hc         1 VW7       0.037700
     21 H9          -9.3070     7.3550   -42.7570 hc         1 VW7       0.037700
     22 H14        -11.1750     6.7580   -47.4110 hc         1 VW7       0.051200
     23 H13        -11.6930     5.2010   -48.0530 hc         1 VW7       0.051200
     24 H2          -5.7330     4.1400   -50.2610 hc         1 VW7       0.060700
     25 H1          -6.2520     5.6760   -50.7940 hc         1 VW7       0.060700
     26 H3          -4.4680     5.3590   -50.7130 hc         1 VW7       0.060700
     27 H10        -10.6630     5.9810   -44.0150 hn         1 VW7       0.463000
     28 H11        -12.3760     5.4650   -45.6450 h1         1 VW7       0.036200
     29 H12        -11.2390     4.1110   -45.8510 h1         1 VW7       0.036200
     30 H15         -9.4590     4.2710   -47.9160 hc         1 VW7       0.039700
     31 H16         -9.2860     5.8730   -48.6240 hc         1 VW7       0.039700
@<TRIPOS>BOND
     1     1     9 1   
     2     1    11 1   
     3     1    16 1   
     4     2     3 ar  
     5     2    11 ar  
     6     2    17 1   
     7     3     4 ar  
     8     3    18 1   
     9     4     5 1   
    10     4     6 ar  
    11     5    19 1   
    12     5    20 1   
    13     5    21 1   
    14     6    12 1   
    15     6    15 ar  
    16     7    13 1   
    17     7    14 1   
    18     7    22 1   
    19     7    23 1   
    20     8     9 1   
    21     8    24 1   
    22     8    25 1   
    23     8    26 1   
    24     9    10 2   
    25    11    15 ar  
    26    12    13 1   
    27    12    27 1   
    28    13    28 1   
    29    13    29 1   
    30    14    15 1   
    31    14    30 1   
    32    14    31 1   
@<TRIPOS>SUBSTRUCTURE
     1 VW7         1 TEMP              0 ****  ****    0 ROOT
