@<TRIPOS>MOLECULE
VW8
   22    22     1     0     0
SMALL
No Charge or Current Charge


@<TRIPOS>ATOM
      1 N1          24.7290     8.0880   -33.9330 n2         1 VW8      -0.743100
      2 C7          23.5360     7.6570   -34.0500 c2         1 VW8       0.560200
      3 O1          23.6510     6.9700   -31.7010 oh         1 VW8      -0.444300
      4 C1          17.8700     8.9200   -35.9920 ca         1 VW8      -0.075000
      5 C5          19.3330     8.7340   -37.9290 ca         1 VW8      -0.075000
      6 C6          22.6220     7.9150   -35.2510 c3         1 VW8       0.124300
      7 C4          20.4230     8.4640   -37.0830 ca         1 VW8      -0.165000
      8 C3          20.2370     8.4210   -35.6830 ca         1 VW8       0.134100
      9 C2          18.9590     8.6500   -35.1460 ca         1 VW8      -0.165000
     10 N           23.0440     6.8270   -33.0420 nu         1 VW8      -0.688900
     11 O           21.2680     8.1610   -34.8030 os         1 VW8      -0.319100
     12 C           18.0580     8.9620   -37.3840 ca         1 VW8      -0.145000
     13 H1          25.0400     7.7330   -33.0180 hn         1 VW8       0.391400
     14 H2          23.6840     6.0660   -31.2940 ho         1 VW8       0.464000
     15 H4          19.4760     8.7660   -39.0070 ha         1 VW8       0.113500
     16 H5          22.6540     7.0400   -35.9130 h1         1 VW8       0.047700
     17 H6          23.0000     8.7790   -35.8120 h1         1 VW8       0.047700
     18 H7          21.3980     8.2910   -37.5300 ha         1 VW8       0.121500
     19 H8          18.8140     8.6190   -34.0690 ha         1 VW8       0.121500
     20 H9          22.0170     6.8370   -32.9850 hn         1 VW8       0.468000
     21 H10         17.2150     9.1710   -38.0400 ha         1 VW8       0.115000
     22 H3          16.8820     9.0970   -35.5700 ha         1 VW8       0.113500
@<TRIPOS>BOND
     1     1     2 2   
     2     1    13 1   
     3     2     6 1   
     4     2    10 1   
     5     3    10 1   
     6     3    14 1   
     7     4     9 ar  
     8     4    12 ar  
     9     4    22 1   
    10     5     7 ar  
    11     5    12 ar  
    12     5    15 1   
    13     6    11 1   
    14     6    16 1   
    15     6    17 1   
    16     7     8 ar  
    17     7    18 1   
    18     8     9 ar  
    19     8    11 1   
    20     9    19 1   
    21    10    20 1   
    22    12    21 1   
@<TRIPOS>SUBSTRUCTURE
     1 VW8         1 TEMP              0 ****  ****    0 ROOT
