@<TRIPOS>MOLECULE
VW8
   22    22     1     0     0
SMALL
abcg2


@<TRIPOS>ATOM
      1 N1          22.8530     6.0780   -33.4860 n2         1 VW8      -0.743100
      2 C7          23.0210     7.3180   -33.7100 c2         1 VW8       0.560200
      3 O1          24.9500     7.5030   -32.3800 oh         1 VW8      -0.444300
      4 C1          17.8490     7.8970   -36.7000 ca         1 VW8      -0.075000
      5 C5          19.4170     9.5060   -37.5470 ca         1 VW8      -0.075000
      6 C6          22.2290     8.0620   -34.7620 c3         1 VW8       0.124300
      7 C4          20.3800     9.0630   -36.6410 ca         1 VW8      -0.165000
      8 C3          20.0650     8.0270   -35.7620 ca         1 VW8       0.134100
      9 C2          18.7950     7.4440   -35.7940 ca         1 VW8      -0.165000
     10 N           23.8980     8.1580   -33.0420 nu         1 VW8      -0.688900
     11 O           20.9260     7.5130   -34.8360 os         1 VW8      -0.319100
     12 C           18.1530     8.9320   -37.5840 ca         1 VW8      -0.145000
     13 H1          23.5080     5.7630   -32.7700 hn         1 VW8       0.391400
     14 H2          24.7970     7.6780   -31.4400 ho         1 VW8       0.464000
     15 H4          19.6680    10.3110   -38.2260 ha         1 VW8       0.113500
     16 H5          22.7490     7.9560   -35.7210 h1         1 VW8       0.047700
     17 H6          22.1830     9.1270   -34.5170 h1         1 VW8       0.047700
     18 H7          21.3540     9.5280   -36.6320 ha         1 VW8       0.121500
     19 H8          18.5710     6.6410   -35.1040 ha         1 VW8       0.121500
     20 H9          24.2640     8.9410   -33.5720 hn         1 VW8       0.468000
     21 H10         17.4120     9.2830   -38.2910 ha         1 VW8       0.115000
     22 H3          16.8680     7.4390   -36.7160 ha         1 VW8       0.113500
@<TRIPOS>BOND
     1     1     2 2   
     2     1    13 1   
     3     2     6 1   
     4     2    10 1   
     5     3    10 1   
     6     3    14 1   
     7     4     9 ar  
     8     4    12 ar  
     9     4    22 1   
    10     5     7 ar  
    11     5    12 ar  
    12     5    15 1   
    13     6    11 1   
    14     6    16 1   
    15     6    17 1   
    16     7     8 ar  
    17     7    18 1   
    18     8     9 ar  
    19     8    11 1   
    20     9    19 1   
    21    10    20 1   
    22    12    21 1   
@<TRIPOS>SUBSTRUCTURE
     1 VW8         1 TEMP              0 ****  ****    0 ROOT
