@<TRIPOS>MOLECULE
VWA
   23    23     1     0     0
SMALL
No Charge or Current Charge


@<TRIPOS>ATOM
      1 N1         -21.6530    11.9600    -8.4350 n7         1 VWA      -0.859400
      2 C4         -24.1330    12.1190    -8.4330 ca         1 VWA      -0.132300
      3 C5         -24.7600    12.7960    -9.5060 ca         1 VWA      -0.079000
      4 C6         -25.9600    12.3050   -10.0510 ca         1 VWA      -0.147500
      5 C7         -26.5410    11.1390    -9.5330 ca         1 VWA       0.165000
      6 C8         -25.9280    10.4570    -8.4720 ca         1 VWA      -0.147500
      7 C1         -21.4400    12.1800    -9.8840 c3         1 VWA       0.142100
      8 C2         -22.8220    12.6170    -7.8080 c3         1 VWA       0.218800
      9 C3         -22.6570    14.1560    -7.7820 c3         1 VWA      -0.080100
     10 F1         -27.6930    10.6700   -10.0590 f          1 VWA      -0.185000
     11 C9         -24.7280    10.9450    -7.9250 ca         1 VWA      -0.079000
     12 H4         -21.7600    10.9490    -8.2900 hn         1 VWA       0.407000
     13 H10        -26.4390    12.8270   -10.8760 ha         1 VWA       0.133000
     14 H11        -26.3830     9.5530    -8.0760 ha         1 VWA       0.133000
     15 H1         -20.5450    11.6420   -10.2230 h1         1 VWA       0.032367
     16 H3         -22.2920    11.8130   -10.4720 h1         1 VWA       0.032367
     17 H2         -21.2950    13.2440   -10.1120 h1         1 VWA       0.032367
     18 H5         -22.8510    12.3140    -6.7510 h1         1 VWA       0.057700
     19 H6         -21.7550    14.4320    -7.2230 hc         1 VWA       0.040700
     20 H7         -22.5760    14.5830    -8.7860 hc         1 VWA       0.040700
     21 H8         -23.5160    14.6190    -7.2820 hc         1 VWA       0.040700
     22 H12        -24.2600    10.4070    -7.1030 ha         1 VWA       0.117000
     23 H9         -24.3230    13.6960    -9.9300 ha         1 VWA       0.117000
@<TRIPOS>BOND
     1     1     7 1   
     2     1     8 1   
     3     1    12 1   
     4     2     3 ar  
     5     2     8 1   
     6     2    11 ar  
     7     3     4 ar  
     8     3    23 1   
     9     4     5 ar  
    10     4    13 1   
    11     5     6 ar  
    12     5    10 1   
    13     6    11 ar  
    14     6    14 1   
    15     7    15 1   
    16     7    16 1   
    17     7    17 1   
    18     8     9 1   
    19     8    18 1   
    20     9    19 1   
    21     9    20 1   
    22     9    21 1   
    23    11    22 1   
@<TRIPOS>SUBSTRUCTURE
     1 VWA         1 TEMP              0 ****  ****    0 ROOT
