@<TRIPOS>MOLECULE
VWA
   23    23     1     0     0
SMALL
abcg2


@<TRIPOS>ATOM
      1 N1         -21.6580    11.9730    -8.4170 n7         1 VWA      -0.859400
      2 C4         -24.1500    12.1670    -8.4110 ca         1 VWA      -0.132300
      3 C5         -24.7880    12.8370    -9.4550 ca         1 VWA      -0.079000
      4 C6         -25.9480    12.3320   -10.0370 ca         1 VWA      -0.147500
      5 C7         -26.4610    11.1440    -9.5530 ca         1 VWA       0.165000
      6 C8         -25.8710    10.4510    -8.5130 ca         1 VWA      -0.147500
      7 C1         -21.5190    12.1270    -9.8640 c3         1 VWA       0.142100
      8 C2         -22.8320    12.6360    -7.8080 c3         1 VWA       0.218800
      9 C3         -22.6560    14.1510    -7.8060 c3         1 VWA      -0.080100
     10 F1         -27.5910    10.6390   -10.1190 f          1 VWA      -0.185000
     11 C9         -24.7130    10.9740    -7.9510 ca         1 VWA      -0.079000
     12 H4         -21.7100    10.9830    -8.2010 hn         1 VWA       0.407000
     13 H10        -26.4430    12.8470   -10.8490 ha         1 VWA       0.133000
     14 H11        -26.3110     9.5290    -8.1550 ha         1 VWA       0.133000
     15 H1         -20.6520    11.5530   -10.1930 h1         1 VWA       0.032367
     16 H3         -22.3920    11.7890   -10.4370 h1         1 VWA       0.032367
     17 H2         -21.3400    13.1740   -10.1150 h1         1 VWA       0.032367
     18 H5         -22.8300    12.3050    -6.7660 h1         1 VWA       0.057700
     19 H6         -21.7330    14.4100    -7.2850 hc         1 VWA       0.040700
     20 H7         -22.6000    14.5650    -8.8130 hc         1 VWA       0.040700
     21 H8         -23.4920    14.6310    -7.2940 hc         1 VWA       0.040700
     22 H12        -24.2360    10.4410    -7.1360 ha         1 VWA       0.117000
     23 H9         -24.3850    13.7660    -9.8330 ha         1 VWA       0.117000
@<TRIPOS>BOND
     1     1     7 1   
     2     1     8 1   
     3     1    12 1   
     4     2     3 ar  
     5     2     8 1   
     6     2    11 ar  
     7     3     4 ar  
     8     3    23 1   
     9     4     5 ar  
    10     4    13 1   
    11     5     6 ar  
    12     5    10 1   
    13     6    11 ar  
    14     6    14 1   
    15     7    15 1   
    16     7    16 1   
    17     7    17 1   
    18     8     9 1   
    19     8    18 1   
    20     9    19 1   
    21     9    20 1   
    22     9    21 1   
    23    11    22 1   
@<TRIPOS>SUBSTRUCTURE
     1 VWA         1 TEMP              0 ****  ****    0 ROOT
