@<TRIPOS>MOLECULE
VWB
   51    54     1     0     0
SMALL
abcg2


@<TRIPOS>ATOM
      1 O3          47.9800   -13.9020    21.5660 os         1 VWB      -0.247200
      2 C24         47.8810   -12.5420    26.1750 ca         1 VWB      -0.063000
      3 C21         49.2090   -14.4630    25.4720 ca         1 VWB      -0.095000
      4 O1          43.9880   -18.1350    20.0150 o          1 VWB      -0.628100
      5 C22         48.7300   -13.5880    26.4830 ca         1 VWB      -0.008000
      6 C20         48.8230   -14.2740    24.1740 ca         1 VWB      -0.079000
      7 C19         47.9460   -13.2160    23.8270 ca         1 VWB      -0.042000
      8 C3          46.3370   -16.6660    23.5930 c5         1 VWB      -0.092400
      9 C1          44.2300   -17.1180    20.6770 c          1 VWB       0.600100
     10 C4          46.0040   -18.1590    23.7050 c5         1 VWB      -0.092400
     11 C8          46.9400   -13.9130    19.4030 ca         1 VWB       0.139100
     12 C6          43.8450   -15.7580    20.1230 c3         1 VWB      -0.154400
     13 C5          45.2280   -18.4910    22.4200 c5         1 VWB       0.099500
     14 C2          45.1810   -16.0880    22.7820 c5         1 VWB       0.099500
     15 C7          44.9140   -15.1870    19.1940 c3         1 VWB       0.169600
     16 C9          47.0410   -13.6550    18.0360 ca         1 VWB      -0.183000
     17 C12         49.1130   -12.8980    19.7140 ca         1 VWB      -0.080000
     18 C11         49.1970   -12.6210    18.3570 ca         1 VWB      -0.135000
     19 C10         48.1620   -13.0090    17.5240 ca         1 VWB      -0.069000
     20 C13         48.0030   -13.5440    20.2250 ca         1 VWB       0.051100
     21 C14         47.5290   -12.9870    22.4880 ca         1 VWB       0.139100
     22 C15         46.7110   -11.9300    22.1750 ca         1 VWB      -0.170000
     23 C16         46.2550   -11.0600    23.1920 ca         1 VWB      -0.072000
     24 C17         46.6180   -11.2480    24.4980 ca         1 VWB      -0.126000
     25 C18         47.4750   -12.3260    24.8400 ca         1 VWB      -0.024000
     26 N1          44.8400   -17.1870    21.8640 n          1 VWB      -0.404800
     27 N2          49.4660   -13.9510    28.9300 n1         1 VWB      -0.450000
     28 H1          47.5280   -11.8750    26.9530 ha         1 VWB       0.128000
     29 H2          49.8840   -15.2710    25.7340 ha         1 VWB       0.128000
     30 H3          49.1810   -14.9400    23.3980 ha         1 VWB       0.136000
     31 H4          47.2730   -16.5230    23.0450 hc         1 VWB       0.054450
     32 H5          46.4430   -16.1790    24.5650 hc         1 VWB       0.054450
     33 H6          45.3790   -18.3520    24.5810 hc         1 VWB       0.054450
     34 H7          46.9060   -18.7770    23.7960 hc         1 VWB       0.054450
     35 H8          43.6410   -15.0310    20.9090 hc         1 VWB       0.076700
     36 H9          42.9300   -15.8980    19.5490 hc         1 VWB       0.076700
     37 H10         44.3370   -19.0940    22.6190 h1         1 VWB       0.056450
     38 H11         45.8310   -19.0330    21.6890 h1         1 VWB       0.056450
     39 H12         45.4700   -15.2000    22.2300 h1         1 VWB       0.056450
     40 H13         44.3250   -15.8450    23.4220 h1         1 VWB       0.056450
     41 H14         45.4430   -15.9700    18.6540 h1         1 VWB       0.049700
     42 H15         44.4620   -14.5120    18.4630 h1         1 VWB       0.049700
     43 H16         46.2450   -13.9430    17.3740 ha         1 VWB       0.122000
     44 H17         49.9090   -12.6240    20.3910 ha         1 VWB       0.130000
     45 H18         50.0660   -12.1180    17.9570 ha         1 VWB       0.123000
     46 H19         48.2230   -12.8140    16.4640 ha         1 VWB       0.118000
     47 H20         46.4080   -11.7680    21.1510 ha         1 VWB       0.130000
     48 H21         45.6100   -10.2360    22.9210 ha         1 VWB       0.117000
     49 H22         46.2690   -10.5790    25.2810 ha         1 VWB       0.122000
     50 C23         49.1320   -13.7910    27.8370 cg         1 VWB       0.322000
     51 O2          45.8700   -14.4830    20.0120 os         1 VWB      -0.354100
@<TRIPOS>BOND
     1     1    20 1   
     2     1    21 1   
     3     2     5 ar  
     4     2    25 ar  
     5     2    28 1   
     6     3     5 ar  
     7     3     6 ar  
     8     3    29 1   
     9     4     9 2   
    10     5    50 1   
    11     6     7 ar  
    12     6    30 1   
    13     7    21 ar  
    14     7    25 ar  
    15     8    10 1   
    16     8    14 1   
    17     8    31 1   
    18     8    32 1   
    19     9    12 1   
    20     9    26 1   
    21    10    13 1   
    22    10    33 1   
    23    10    34 1   
    24    11    16 ar  
    25    11    20 ar  
    26    11    51 1   
    27    12    15 1   
    28    12    35 1   
    29    12    36 1   
    30    13    26 1   
    31    13    37 1   
    32    13    38 1   
    33    14    26 1   
    34    14    39 1   
    35    14    40 1   
    36    15    41 1   
    37    15    42 1   
    38    15    51 1   
    39    16    19 ar  
    40    16    43 1   
    41    17    18 ar  
    42    17    20 ar  
    43    17    44 1   
    44    18    19 ar  
    45    18    45 1   
    46    19    46 1   
    47    21    22 ar  
    48    22    23 ar  
    49    22    47 1   
    50    23    24 ar  
    51    23    48 1   
    52    24    25 ar  
    53    24    49 1   
    54    27    50 3   
@<TRIPOS>SUBSTRUCTURE
     1 VWB         1 TEMP              0 ****  ****    0 ROOT
