@<TRIPOS>MOLECULE
VWB
   51    54     1     0     0
SMALL
No Charge or Current Charge


@<TRIPOS>ATOM
      1 O3          48.5870   -13.5330    21.2230 os         1 VWB      -0.247200
      2 C24         47.3640   -13.2070    25.9140 ca         1 VWB      -0.063000
      3 C21         49.2200   -14.6330    25.2500 ca         1 VWB      -0.095000
      4 O1          44.4030   -17.7390    20.2570 o          1 VWB      -0.628100
      5 C22         48.3900   -14.1080    26.2570 ca         1 VWB      -0.008000
      6 C20         49.0250   -14.2650    23.9080 ca         1 VWB      -0.079000
      7 C19         47.9960   -13.3640    23.5560 ca         1 VWB      -0.042000
      8 C3          46.3420   -16.5400    24.2400 c5         1 VWB      -0.092400
      9 C1          44.5490   -16.7710    20.9930 c          1 VWB       0.600100
     10 C4          45.6980   -17.9450    24.3100 c5         1 VWB      -0.092400
     11 C8          47.2060   -13.8500    19.2290 ca         1 VWB       0.139100
     12 C6          44.0600   -15.3870    20.5470 c3         1 VWB      -0.154400
     13 C5          45.4940   -18.2610    22.8070 c5         1 VWB       0.099500
     14 C2          45.4450   -15.8270    23.1950 c5         1 VWB       0.099500
     15 C7          44.9430   -14.8150    19.4270 c3         1 VWB       0.169600
     16 C9          47.0600   -13.6590    17.8340 ca         1 VWB      -0.183000
     17 C12         49.3820   -12.7330    19.1210 ca         1 VWB      -0.080000
     18 C11         49.2260   -12.5500    17.7380 ca         1 VWB      -0.135000
     19 C10         48.0660   -13.0110    17.0960 ca         1 VWB      -0.069000
     20 C13         48.3770   -13.3690    19.8700 ca         1 VWB       0.051100
     21 C14         47.7810   -12.9900    22.2070 ca         1 VWB       0.139100
     22 C15         46.7640   -12.0610    21.8950 ca         1 VWB      -0.170000
     23 C16         45.9450   -11.5390    22.9080 ca         1 VWB      -0.072000
     24 C17         46.1420   -11.9280    24.2410 ca         1 VWB      -0.126000
     25 C18         47.1670   -12.8330    24.5710 ca         1 VWB      -0.024000
     26 N1          45.0940   -16.9380    22.2830 n          1 VWB      -0.404800
     27 N2          48.7340   -14.8040    28.7440 n1         1 VWB      -0.450000
     28 H1          46.7210   -12.7980    26.6900 ha         1 VWB       0.128000
     29 H2          50.0160   -15.3310    25.5040 ha         1 VWB       0.128000
     30 H3          49.6770   -14.6880    23.1470 ha         1 VWB       0.136000
     31 H4          47.3780   -16.6040    23.8910 hc         1 VWB       0.054450
     32 H5          46.3490   -16.0250    25.2070 hc         1 VWB       0.054450
     33 H6          44.7400   -17.9170    24.8430 hc         1 VWB       0.054450
     34 H7          46.3350   -18.6820    24.8110 hc         1 VWB       0.054450
     35 H8          44.0280   -14.6690    21.3710 hc         1 VWB       0.076700
     36 H9          43.0500   -15.5030    20.1380 hc         1 VWB       0.076700
     37 H10         44.7220   -19.0260    22.6500 h1         1 VWB       0.056450
     38 H11         46.4250   -18.5990    22.3330 h1         1 VWB       0.056450
     39 H12         45.9810   -15.0200    22.6810 h1         1 VWB       0.056450
     40 H13         44.5430   -15.4080    23.6610 h1         1 VWB       0.056450
     41 H14         45.0370   -15.5500    18.6160 h1         1 VWB       0.049700
     42 H15         44.4630   -13.9140    19.0240 h1         1 VWB       0.049700
     43 H16         46.1810   -14.0100    17.3030 ha         1 VWB       0.122000
     44 H17         50.2810   -12.3770    19.6180 ha         1 VWB       0.130000
     45 H18         50.0040   -12.0530    17.1630 ha         1 VWB       0.123000
     46 H19         47.9470   -12.8690    16.0230 ha         1 VWB       0.118000
     47 H20         46.5980   -11.7400    20.8700 ha         1 VWB       0.130000
     48 H21         45.1570   -10.8300    22.6590 ha         1 VWB       0.117000
     49 H22         45.5010   -11.5180    25.0190 ha         1 VWB       0.122000
     50 C23         48.5850   -14.4910    27.6290 cg         1 VWB       0.322000
     51 O2          46.2300   -14.4880    19.9790 os         1 VWB      -0.354100
@<TRIPOS>BOND
     1     1    20 1   
     2     1    21 1   
     3     2     5 ar  
     4     2    25 ar  
     5     2    28 1   
     6     3     5 ar  
     7     3     6 ar  
     8     3    29 1   
     9     4     9 2   
    10     5    50 1   
    11     6     7 ar  
    12     6    30 1   
    13     7    21 ar  
    14     7    25 ar  
    15     8    10 1   
    16     8    14 1   
    17     8    31 1   
    18     8    32 1   
    19     9    12 1   
    20     9    26 1   
    21    10    13 1   
    22    10    33 1   
    23    10    34 1   
    24    11    16 ar  
    25    11    20 ar  
    26    11    51 1   
    27    12    15 1   
    28    12    35 1   
    29    12    36 1   
    30    13    26 1   
    31    13    37 1   
    32    13    38 1   
    33    14    26 1   
    34    14    39 1   
    35    14    40 1   
    36    15    41 1   
    37    15    42 1   
    38    15    51 1   
    39    16    19 ar  
    40    16    43 1   
    41    17    18 ar  
    42    17    20 ar  
    43    17    44 1   
    44    18    19 ar  
    45    18    45 1   
    46    19    46 1   
    47    21    22 ar  
    48    22    23 ar  
    49    22    47 1   
    50    23    24 ar  
    51    23    48 1   
    52    24    25 ar  
    53    24    49 1   
    54    27    50 3   
@<TRIPOS>SUBSTRUCTURE
     1 VWB         1 TEMP              0 ****  ****    0 ROOT
