@<TRIPOS>MOLECULE
VWC
   31    31     1     0     0
SMALL
abcg2


@<TRIPOS>ATOM
      1 N1          45.8350    24.3900    26.5170 n8         1 VWC      -0.715200
      2 C7          43.0210    23.7110    24.1620 ca         1 VWC      -0.194600
      3 C8          42.7090    22.7750    23.1690 ca         1 VWC      -0.034500
      4 C9          41.6440    22.9730    22.3140 ca         1 VWC      -0.183500
      5 O1          44.5580    22.2670    25.2650 o          1 VWC      -0.570100
      6 C1          37.8650    25.2230    20.5910 c3         1 VWC      -0.066700
      7 C5          41.1330    25.0530    23.4330 ca         1 VWC      -0.183500
      8 C6          42.2170    24.8450    24.2790 ca         1 VWC      -0.034500
      9 C4          40.8430    24.1160    22.4390 ca         1 VWC       0.168100
     10 C3          38.9480    25.3610    21.6480 c3         1 VWC       0.165600
     11 C2          36.9980    23.9870    20.8300 c3         1 VWC      -0.087100
     12 C10         44.1780    23.4200    25.0630 c          1 VWC       0.637700
     13 N           44.7630    24.5080    25.6210 ns         1 VWC      -0.415300
     14 O           39.8170    24.2220    21.5650 os         1 VWC      -0.352100
     15 C           37.0220    26.4990    20.5660 c3         1 VWC      -0.087100
     16 H1          46.6640    24.8020    26.1000 hn         1 VWC       0.396500
     17 H2          45.6140    24.9180    27.3550 hn         1 VWC       0.396500
     18 H3          43.3200    21.8880    23.0740 ha         1 VWC       0.123000
     19 H4          41.4080    22.2530    21.5410 ha         1 VWC       0.126000
     20 H5          38.3660    25.1180    19.6220 hc         1 VWC       0.061700
     21 H6          40.5230    25.9340    23.5620 ha         1 VWC       0.126000
     22 H7          42.4020    25.5750    25.0570 ha         1 VWC       0.123000
     23 H8          39.5330    26.2710    21.4850 h1         1 VWC       0.037200
     24 H9          38.5020    25.4060    22.6470 h1         1 VWC       0.037200
     25 H10         37.5960    23.0750    20.8410 hc         1 VWC       0.038200
     26 H11         36.4800    24.0650    21.7910 hc         1 VWC       0.038200
     27 H12         36.2430    23.8900    20.0470 hc         1 VWC       0.038200
     28 H13         44.4920    25.4310    25.3150 hn         1 VWC       0.298500
     29 H14         37.6360    27.3790    20.3650 hc         1 VWC       0.038200
     30 H15         36.2560    26.4350    19.7910 hc         1 VWC       0.038200
     31 H16         36.5170    26.6480    21.5240 hc         1 VWC       0.038200
@<TRIPOS>BOND
     1     1    13 1   
     2     1    16 1   
     3     1    17 1   
     4     2     3 ar  
     5     2     8 ar  
     6     2    12 1   
     7     3     4 ar  
     8     3    18 1   
     9     4     9 ar  
    10     4    19 1   
    11     5    12 2   
    12     6    10 1   
    13     6    11 1   
    14     6    15 1   
    15     6    20 1   
    16     7     8 ar  
    17     7     9 ar  
    18     7    21 1   
    19     8    22 1   
    20     9    14 1   
    21    10    14 1   
    22    10    23 1   
    23    10    24 1   
    24    11    25 1   
    25    11    26 1   
    26    11    27 1   
    27    12    13 1   
    28    13    28 1   
    29    15    29 1   
    30    15    30 1   
    31    15    31 1   
@<TRIPOS>SUBSTRUCTURE
     1 VWC         1 TEMP              0 ****  ****    0 ROOT
