@<TRIPOS>MOLECULE
VWC
   31    31     1     0     0
SMALL
No Charge or Current Charge


@<TRIPOS>ATOM
      1 N1          45.8970    24.4110    26.6960 n8         1 VWC      -0.715200
      2 C7          43.1560    23.6900    24.0420 ca         1 VWC      -0.194600
      3 C8          42.7420    22.7030    23.1190 ca         1 VWC      -0.034500
      4 C9          41.6070    22.9030    22.3160 ca         1 VWC      -0.183500
      5 O1          45.0360    22.4060    24.8050 o          1 VWC      -0.570100
      6 C1          37.7820    25.2120    20.6010 c3         1 VWC      -0.066700
      7 C5          41.2640    25.0790    23.3310 ca         1 VWC      -0.183500
      8 C6          42.3990    24.8840    24.1370 ca         1 VWC      -0.034500
      9 C4          40.8630    24.0860    22.4150 ca         1 VWC       0.168100
     10 C3          38.9260    25.3960    21.6300 c3         1 VWC       0.165600
     11 C2          36.8670    24.0110    20.9430 c3         1 VWC      -0.087100
     12 C10         44.3860    23.4410    24.8930 c          1 VWC       0.637700
     13 N           44.7490    24.4540    25.7900 ns         1 VWC      -0.415300
     14 O           39.7590    24.2230    21.6000 os         1 VWC      -0.352100
     15 C           36.9580    26.5100    20.4470 c3         1 VWC      -0.087100
     16 H1          46.5510    25.1880    26.5160 hn         1 VWC       0.396500
     17 H2          45.6040    24.4950    27.6810 hn         1 VWC       0.396500
     18 H3          43.3000    21.7730    23.0200 ha         1 VWC       0.123000
     19 H4          41.3010    22.1340    21.6120 ha         1 VWC       0.126000
     20 H5          38.2470    25.0080    19.6280 hc         1 VWC       0.061700
     21 H6          40.7090    26.0080    23.4320 ha         1 VWC       0.126000
     22 H7          42.6750    25.6750    24.8310 ha         1 VWC       0.123000
     23 H8          39.5130    26.2850    21.3650 h1         1 VWC       0.037200
     24 H9          38.4980    25.5460    22.6300 h1         1 VWC       0.037200
     25 H10         37.4380    23.0750    20.9710 hc         1 VWC       0.038200
     26 H11         36.3900    24.1500    21.9210 hc         1 VWC       0.038200
     27 H12         36.0780    23.8980    20.1900 hc         1 VWC       0.038200
     28 H13         44.1520    25.2800    25.7950 hn         1 VWC       0.298500
     29 H14         37.6030    27.3470    20.1510 hc         1 VWC       0.038200
     30 H15         36.1850    26.3910    19.6780 hc         1 VWC       0.038200
     31 H16         36.4660    26.7750    21.3910 hc         1 VWC       0.038200
@<TRIPOS>BOND
     1     1    13 1   
     2     1    16 1   
     3     1    17 1   
     4     2     3 ar  
     5     2     8 ar  
     6     2    12 1   
     7     3     4 ar  
     8     3    18 1   
     9     4     9 ar  
    10     4    19 1   
    11     5    12 2   
    12     6    10 1   
    13     6    11 1   
    14     6    15 1   
    15     6    20 1   
    16     7     8 ar  
    17     7     9 ar  
    18     7    21 1   
    19     8    22 1   
    20     9    14 1   
    21    10    14 1   
    22    10    23 1   
    23    10    24 1   
    24    11    25 1   
    25    11    26 1   
    26    11    27 1   
    27    12    13 1   
    28    13    28 1   
    29    15    29 1   
    30    15    30 1   
    31    15    31 1   
@<TRIPOS>SUBSTRUCTURE
     1 VWC         1 TEMP              0 ****  ****    0 ROOT
