@<TRIPOS>MOLECULE
VWD
   25    25     1     0     0
SMALL
abcg2


@<TRIPOS>ATOM
      1 C4         -17.2390    41.8130   -19.5220 ca         1 VWD      -0.086300
      2 C5         -16.3200    41.7630   -18.4780 ca         1 VWD      -0.090500
      3 C6         -15.1970    42.5810   -18.4960 ca         1 VWD      -0.114000
      4 C7         -14.9840    43.4560   -19.5530 ca         1 VWD      -0.103000
      5 C8         -15.8990    43.5100   -20.5960 ca         1 VWD      -0.114000
      6 C1         -22.2120    41.7780   -17.7240 c3         1 VWD      -0.330100
      7 O1         -21.0880    39.5470   -18.5940 o          1 VWD      -0.519500
      8 O2         -21.6270    41.3360   -20.2630 o          1 VWD      -0.519500
      9 C2         -19.5500    41.7010   -18.6630 c3         1 VWD      -0.342400
     10 C3         -18.4880    40.9680   -19.5000 c3         1 VWD       0.259600
     11 O3         -18.1760    39.7060   -18.9760 oh         1 VWD      -0.653000
     12 C9         -17.0200    42.6900   -20.5780 ca         1 VWD      -0.090500
     13 H1         -16.4730    41.0860   -17.6480 ha         1 VWD       0.119000
     14 H2         -14.4870    42.5330   -17.6810 ha         1 VWD       0.114500
     15 H3         -14.1070    44.0900   -19.5660 ha         1 VWD       0.113000
     16 H4         -15.7390    44.1840   -21.4270 ha         1 VWD       0.114500
     17 H5         -21.8650    41.5360   -16.7230 h1         1 VWD       0.106700
     18 H6         -22.1880    42.8520   -17.8900 h1         1 VWD       0.106700
     19 H7         -23.2230    41.4000   -17.8730 h1         1 VWD       0.106700
     20 H8         -19.3160    41.6510   -17.5970 h1         1 VWD       0.107700
     21 H9         -19.6340    42.7480   -18.9580 h1         1 VWD       0.107700
     22 H10        -18.8620    40.8910   -20.5310 h1         1 VWD       0.053700
     23 H11        -18.9940    39.2080   -18.8550 ho         1 VWD       0.472000
     24 H12        -17.7280    42.7320   -21.3980 ha         1 VWD       0.119000
     25 S1         -21.1720    40.9780   -18.9200 s6         1 VWD       1.064000
@<TRIPOS>BOND
     1     1     2 ar  
     2     1    10 1   
     3     1    12 ar  
     4     2     3 ar  
     5     2    13 1   
     6     3     4 ar  
     7     3    14 1   
     8     4     5 ar  
     9     4    15 1   
    10     5    12 ar  
    11     5    16 1   
    12     6    17 1   
    13     6    18 1   
    14     6    19 1   
    15     6    25 1   
    16     7    25 2   
    17     8    25 2   
    18     9    10 1   
    19     9    20 1   
    20     9    21 1   
    21     9    25 1   
    22    10    11 1   
    23    10    22 1   
    24    11    23 1   
    25    12    24 1   
@<TRIPOS>SUBSTRUCTURE
     1 VWD         1 TEMP              0 ****  ****    0 ROOT
