@<TRIPOS>MOLECULE
VWD
   25    25     1     0     0
SMALL
No Charge or Current Charge


@<TRIPOS>ATOM
      1 C4         -17.2650    41.9120   -19.5810 ca         1 VWD      -0.086300
      2 C5         -16.5460    42.1250   -18.3840 ca         1 VWD      -0.090500
      3 C6         -15.3660    42.8890   -18.3890 ca         1 VWD      -0.114000
      4 C7         -14.8920    43.4460   -19.5880 ca         1 VWD      -0.103000
      5 C8         -15.5990    43.2380   -20.7830 ca         1 VWD      -0.114000
      6 C1         -22.2010    41.5960   -17.5100 c3         1 VWD      -0.330100
      7 O1         -21.2080    39.5780   -18.8970 o          1 VWD      -0.519500
      8 O2         -21.7180    41.7490   -20.1030 o          1 VWD      -0.519500
      9 C2         -19.5690    41.6150   -18.5660 c3         1 VWD      -0.342400
     10 C3         -18.5530    41.0880   -19.5870 c3         1 VWD       0.259600
     11 O3         -18.2440    39.7310   -19.2660 oh         1 VWD      -0.653000
     12 C9         -16.7800    42.4740   -20.7810 ca         1 VWD      -0.090500
     13 H1         -16.9000    41.6930   -17.4510 ha         1 VWD       0.119000
     14 H2         -14.8180    43.0470   -17.4620 ha         1 VWD       0.114500
     15 H3         -13.9790    44.0370   -19.5900 ha         1 VWD       0.113000
     16 H4         -15.2330    43.6680   -21.7130 ha         1 VWD       0.114500
     17 H5         -21.7780    41.1360   -16.6100 h1         1 VWD       0.106700
     18 H6         -22.1350    42.6880   -17.4660 h1         1 VWD       0.106700
     19 H7         -23.2330    41.2680   -17.6720 h1         1 VWD       0.106700
     20 H8         -19.3160    41.2950   -17.5500 h1         1 VWD       0.107700
     21 H9         -19.6150    42.7090   -18.6050 h1         1 VWD       0.107700
     22 H10        -18.9910    41.1480   -20.5940 h1         1 VWD       0.053700
     23 H11        -19.0980    39.2450   -19.2370 ho         1 VWD       0.472000
     24 H12        -17.3170    42.3200   -21.7140 ha         1 VWD       0.119000
     25 S1         -21.2340    41.0450   -18.9100 s6         1 VWD       1.064000
@<TRIPOS>BOND
     1     1     2 ar  
     2     1    10 1   
     3     1    12 ar  
     4     2     3 ar  
     5     2    13 1   
     6     3     4 ar  
     7     3    14 1   
     8     4     5 ar  
     9     4    15 1   
    10     5    12 ar  
    11     5    16 1   
    12     6    17 1   
    13     6    18 1   
    14     6    19 1   
    15     6    25 1   
    16     7    25 2   
    17     8    25 2   
    18     9    10 1   
    19     9    20 1   
    20     9    21 1   
    21     9    25 1   
    22    10    11 1   
    23    10    22 1   
    24    11    23 1   
    25    12    24 1   
@<TRIPOS>SUBSTRUCTURE
     1 VWD         1 TEMP              0 ****  ****    0 ROOT
