@<TRIPOS>MOLECULE
VWE
   17    17     1     0     0
SMALL
abcg2


@<TRIPOS>ATOM
      1 C1         -59.2110    38.8820   -39.0730 ca         1 VWE      -0.239000
      2 O1         -60.6800    42.7330   -36.4770 o          1 VWE      -0.715200
      3 C2         -59.7810    39.3740   -40.2340 ca         1 VWE       0.196000
      4 O2         -58.3390    43.1340   -37.1040 o          1 VWE      -0.715200
      5 C3         -60.2240    40.6880   -40.3580 ca         1 VWE      -0.211600
      6 C4         -60.0620    41.4980   -39.2370 ca         1 VWE       0.024000
      7 C5         -59.5130    41.0260   -38.0540 ca         1 VWE      -0.276500
      8 C6         -60.8840    41.2750   -41.6120 c          1 VWE       0.726600
      9 O3         -60.9540    42.5180   -41.6450 o          1 VWE      -0.730500
     10 O4         -61.3010    40.4710   -42.4610 o          1 VWE      -0.730500
     11 C          -59.0800    39.7110   -37.9700 ca         1 VWE      -0.028000
     12 O          -58.8980    41.3120   -35.5390 o          1 VWE      -0.715200
     13 F          -59.8700    38.5170   -41.2600 f          1 VWE      -0.197000
     14 S          -59.3420    42.1470   -36.6690 s6         1 VWE       1.281100
     15 H1         -58.8730    37.8540   -39.0340 ha         1 VWE       0.080000
     16 H2         -60.3930    42.5260   -39.3120 ha         1 VWE       0.143000
     17 H4         -58.6450    39.3270   -37.0580 ha         1 VWE       0.108000
@<TRIPOS>BOND
     1     1     3 ar  
     2     1    11 ar  
     3     1    15 1   
     4     2    14 1   
     5     3     5 ar  
     6     3    13 1   
     7     4    14 1   
     8     5     6 ar  
     9     5     8 1   
    10     6     7 ar  
    11     6    16 1   
    12     7    11 ar  
    13     7    14 1   
    14     8     9 1   
    15     8    10 1   
    16    11    17 1   
    17    12    14 1   
@<TRIPOS>SUBSTRUCTURE
     1 VWE         1 TEMP              0 ****  ****    0 ROOT
