@<TRIPOS>MOLECULE
VWE
   17    17     1     0     0
SMALL
No Charge or Current Charge


@<TRIPOS>ATOM
      1 C1         -59.0950    38.9200   -39.1320 ca         1 VWE      -0.239000
      2 O1         -60.5910    43.0000   -36.6900 o          1 VWE      -0.715200
      3 C2         -59.7270    39.3830   -40.2960 ca         1 VWE       0.196000
      4 O2         -58.1100    42.8600   -36.8550 o          1 VWE      -0.715200
      5 C3         -60.2600    40.6840   -40.3480 ca         1 VWE      -0.211600
      6 C4         -60.1450    41.5190   -39.2170 ca         1 VWE       0.024000
      7 C5         -59.5210    41.0570   -38.0380 ca         1 VWE      -0.276500
      8 C6         -60.9330    41.1980   -41.5830 c          1 VWE       0.726600
      9 O3         -60.6330    42.3170   -41.9720 o          1 VWE      -0.730500
     10 O4         -61.8070    40.5180   -42.1010 o          1 VWE      -0.730500
     11 C          -58.9910    39.7500   -38.0040 ca         1 VWE      -0.028000
     12 O          -59.3510    41.2200   -35.4490 o          1 VWE      -0.715200
     13 F          -59.7820    38.5670   -41.3720 f          1 VWE      -0.197000
     14 S          -59.3800    42.1740   -36.5680 s6         1 VWE       1.281100
     15 H1         -58.6800    37.9160   -39.1050 ha         1 VWE       0.080000
     16 H2         -60.5480    42.5300   -39.2570 ha         1 VWE       0.143000
     17 H4         -58.4940    39.3790   -37.1100 ha         1 VWE       0.108000
@<TRIPOS>BOND
     1     1     3 ar  
     2     1    11 ar  
     3     1    15 1   
     4     2    14 1   
     5     3     5 ar  
     6     3    13 1   
     7     4    14 1   
     8     5     6 ar  
     9     5     8 1   
    10     6     7 ar  
    11     6    16 1   
    12     7    11 ar  
    13     7    14 1   
    14     8     9 1   
    15     8    10 1   
    16    11    17 1   
    17    12    14 1   
@<TRIPOS>SUBSTRUCTURE
     1 VWE         1 TEMP              0 ****  ****    0 ROOT
