@<TRIPOS>MOLECULE
VWG
   22    23     1     0     0
SMALL
No Charge or Current Charge


@<TRIPOS>ATOM
      1 N1         -11.7650     2.5480   -75.5120 ns         1 VWG      -0.396400
      2 C4          -9.1390     4.2810   -78.4730 ca         1 VWG      -0.059000
      3 C5          -7.9100     3.6500   -78.7190 ca         1 VWG      -0.072000
      4 C6          -7.0320     4.1620   -79.6940 ca         1 VWG      -0.097000
      5 C7          -5.8030     3.5270   -79.9350 ca         1 VWG      -0.096000
      6 C8          -5.4520     2.3830   -79.2010 ca         1 VWG      -0.103000
      7 C10         -7.5670     2.4970   -77.9710 ca         1 VWG       0.265000
      8 O1         -12.7720     1.8960   -74.7000 oh         1 VWG      -0.412100
      9 C1         -10.5050     1.9670   -75.6940 c          1 VWG       0.514600
     10 O2         -10.1570     1.0110   -75.0020 o          1 VWG      -0.536100
     11 C2          -9.5960     2.5860   -76.7770 ca         1 VWG       0.304500
     12 C3          -9.9890     3.7440   -77.4940 ca         1 VWG      -0.155000
     13 C9          -6.3300     1.8750   -78.2270 ca         1 VWG      -0.072000
     14 N2          -8.3940     1.9870   -77.0290 nb         1 VWG      -0.611000
     15 H2         -12.1110     3.2320   -76.1840 hn         1 VWG       0.341500
     16 H5          -7.3010     5.0480   -80.2650 ha         1 VWG       0.118000
     17 H6          -5.1240     3.9220   -80.6890 ha         1 VWG       0.118000
     18 H7          -4.5000     1.8900   -79.3850 ha         1 VWG       0.120000
     19 H1         -13.0790     2.6090   -74.0900 ho         1 VWG       0.441000
     20 H3         -10.9360     4.2360   -77.3000 ha         1 VWG       0.127000
     21 H8          -6.0520     0.9890   -77.6630 ha         1 VWG       0.138000
     22 H4          -9.4320     5.1700   -79.0280 ha         1 VWG       0.123000
@<TRIPOS>BOND
     1     1     8 1   
     2     1     9 1   
     3     1    15 1   
     4     2     3 ar  
     5     2    12 ar  
     6     2    22 1   
     7     3     4 ar  
     8     3     7 ar  
     9     4     5 ar  
    10     4    16 1   
    11     5     6 ar  
    12     5    17 1   
    13     6    13 ar  
    14     6    18 1   
    15     7    13 ar  
    16     7    14 ar  
    17     8    19 1   
    18     9    10 2   
    19     9    11 1   
    20    11    12 ar  
    21    11    14 ar  
    22    12    20 1   
    23    13    21 1   
@<TRIPOS>SUBSTRUCTURE
     1 VWG         1 TEMP              0 ****  ****    0 ROOT
