@<TRIPOS>MOLECULE
VWG
   22    23     1     0     0
SMALL
abcg2


@<TRIPOS>ATOM
      1 N1         -11.4890     2.7380   -75.3900 ns         1 VWG      -0.396400
      2 C4          -9.3170     4.1480   -78.7260 ca         1 VWG      -0.059000
      3 C5          -8.0120     3.6220   -78.8090 ca         1 VWG      -0.072000
      4 C6          -7.0330     4.1280   -79.6930 ca         1 VWG      -0.097000
      5 C7          -5.7850     3.5700   -79.7280 ca         1 VWG      -0.096000
      6 C8          -5.4640     2.4840   -78.8840 ca         1 VWG      -0.103000
      7 C10         -7.6910     2.5310   -77.9610 ca         1 VWG       0.265000
      8 O1         -12.4680     2.2900   -74.5610 oh         1 VWG      -0.412100
      9 C1         -10.7080     1.8690   -76.0500 c          1 VWG       0.514600
     10 O2         -10.7170     0.6660   -75.8720 o          1 VWG      -0.536100
     11 C2          -9.7790     2.5290   -77.0320 ca         1 VWG       0.304500
     12 C3         -10.2040     3.6080   -77.8380 ca         1 VWG      -0.155000
     13 C9          -6.3930     1.9730   -78.0200 ca         1 VWG      -0.072000
     14 N2          -8.5840     2.0050   -77.0960 nb         1 VWG      -0.611000
     15 H2         -11.4550     3.7390   -75.5200 hn         1 VWG       0.341500
     16 H5          -7.2820     4.9620   -80.3370 ha         1 VWG       0.118000
     17 H6          -5.0350     3.9590   -80.4030 ha         1 VWG       0.118000
     18 H7          -4.4710     2.0560   -78.9250 ha         1 VWG       0.120000
     19 H1         -12.0770     2.2370   -73.6780 ho         1 VWG       0.441000
     20 H3         -11.2160     3.9850   -77.7740 ha         1 VWG       0.127000
     21 H8          -6.1570     1.1390   -77.3710 ha         1 VWG       0.138000
     22 H4          -9.6090     4.9710   -79.3660 ha         1 VWG       0.123000
@<TRIPOS>BOND
     1     1     8 1   
     2     1     9 1   
     3     1    15 1   
     4     2     3 ar  
     5     2    12 ar  
     6     2    22 1   
     7     3     4 ar  
     8     3     7 ar  
     9     4     5 ar  
    10     4    16 1   
    11     5     6 ar  
    12     5    17 1   
    13     6    13 ar  
    14     6    18 1   
    15     7    13 ar  
    16     7    14 ar  
    17     8    19 1   
    18     9    10 2   
    19     9    11 1   
    20    11    12 ar  
    21    11    14 ar  
    22    12    20 1   
    23    13    21 1   
@<TRIPOS>SUBSTRUCTURE
     1 VWG         1 TEMP              0 ****  ****    0 ROOT
