@<TRIPOS>MOLECULE
VWH
   35    36     1     0     0
SMALL
No Charge or Current Charge


@<TRIPOS>ATOM
      1 C7          22.3950    13.4740   -26.6680 c3         1 VWH       0.213100
      2 C8          20.6050    15.2280   -26.5980 c5         1 VWH       0.164500
      3 C9          19.6000    14.5660   -27.5750 c5         1 VWH      -0.080900
      4 O1          22.0400    10.5620   -26.7550 oh         1 VWH      -0.525100
      5 C1          23.6780    10.2000   -25.0590 ca         1 VWH       0.041100
      6 C5          23.1620    12.4850   -25.7940 ca         1 VWH      -0.095300
      7 C6          22.9490    11.0890   -25.8790 ca         1 VWH       0.140100
      8 C4          24.1200    12.9750   -24.8830 ca         1 VWH      -0.105000
      9 C3          24.8470    12.0940   -24.0660 ca         1 VWH      -0.117000
     10 C2          24.6300    10.7090   -24.1480 ca         1 VWH      -0.145000
     11 C           24.1170     7.8560   -24.3950 c3         1 VWH       0.159900
     12 N           21.3690    14.1840   -25.8780 n7         1 VWH      -0.849400
     13 C12         19.6160    15.8790   -25.6050 c5         1 VWH      -0.080900
     14 C11         18.6960    16.6560   -26.5870 c5         1 VWH      -0.077900
     15 C10         18.5800    15.7180   -27.8350 c5         1 VWH      -0.077900
     16 H1          21.9370    12.9540   -27.5200 h1         1 VWH       0.040200
     17 H2          23.1130    14.1940   -27.0870 h1         1 VWH       0.040200
     18 H3          21.2570    15.9670   -27.0850 h1         1 VWH       0.015700
     19 H4          19.1030    13.6990   -27.1220 hc         1 VWH       0.048950
     20 H5          20.0760    14.2210   -28.5000 hc         1 VWH       0.048950
     21 H6          22.0700     9.5880   -26.6220 ho         1 VWH       0.476000
     22 H7          24.3020    14.0450   -24.8080 ha         1 VWH       0.113000
     23 H8          25.5820    12.4870   -23.3660 ha         1 VWH       0.115000
     24 H9          25.2070    10.0520   -23.5040 ha         1 VWH       0.116000
     25 H10         23.7660     6.8480   -24.6530 h1         1 VWH       0.042700
     26 H11         25.1980     7.8960   -24.5770 h1         1 VWH       0.042700
     27 H12         23.9340     8.0140   -23.3240 h1         1 VWH       0.042700
     28 H13         21.8490    14.6190   -25.0830 hn         1 VWH       0.404000
     29 H15         20.1120    16.5430   -24.8880 hc         1 VWH       0.048950
     30 H16         19.0500    15.1340   -25.0310 hc         1 VWH       0.048950
     31 H17         19.1470    17.6150   -26.8660 hc         1 VWH       0.042200
     32 H18         17.7200    16.8800   -26.1430 hc         1 VWH       0.042200
     33 H19         17.5640    15.3270   -27.9600 hc         1 VWH       0.042200
     34 H20         18.8240    16.2650   -28.7530 hc         1 VWH       0.042200
     35 O           23.4260     8.8430   -25.1850 os         1 VWH      -0.377100
@<TRIPOS>BOND
     1     1     6 1   
     2     1    12 1   
     3     1    16 1   
     4     1    17 1   
     5     2     3 1   
     6     2    12 1   
     7     2    13 1   
     8     2    18 1   
     9     3    15 1   
    10     3    19 1   
    11     3    20 1   
    12     4     7 1   
    13     4    21 1   
    14     5     7 ar  
    15     5    10 ar  
    16     5    35 1   
    17     6     7 ar  
    18     6     8 ar  
    19     8     9 ar  
    20     8    22 1   
    21     9    10 ar  
    22     9    23 1   
    23    10    24 1   
    24    11    25 1   
    25    11    26 1   
    26    11    27 1   
    27    11    35 1   
    28    12    28 1   
    29    13    14 1   
    30    13    29 1   
    31    13    30 1   
    32    14    15 1   
    33    14    31 1   
    34    14    32 1   
    35    15    33 1   
    36    15    34 1   
@<TRIPOS>SUBSTRUCTURE
     1 VWH         1 TEMP              0 ****  ****    0 ROOT
