@<TRIPOS>MOLECULE
VWH
   35    36     1     0     0
SMALL
abcg2


@<TRIPOS>ATOM
      1 C7          22.6270    13.6910   -26.5490 c3         1 VWH       0.213100
      2 C8          20.7210    15.2170   -26.5840 c5         1 VWH       0.164500
      3 C9          19.9270    14.6880   -27.8100 c5         1 VWH      -0.080900
      4 O1          21.8990    10.9410   -26.6180 oh         1 VWH      -0.525100
      5 C1          23.5740    10.3280   -25.0240 ca         1 VWH       0.041100
      6 C5          23.3390    12.6340   -25.7490 ca         1 VWH      -0.095300
      7 C6          22.9300    11.3060   -25.8010 ca         1 VWH       0.140100
      8 C4          24.4040    12.9710   -24.9080 ca         1 VWH      -0.105000
      9 C3          25.0420    12.0110   -24.1390 ca         1 VWH      -0.117000
     10 C2          24.6270    10.6790   -24.1920 ca         1 VWH      -0.145000
     11 C           23.6460     8.0100   -24.4160 c3         1 VWH       0.159900
     12 N           21.4150    14.1490   -25.8590 n7         1 VWH      -0.849400
     13 C12         19.6800    15.9140   -25.6920 c5         1 VWH      -0.080900
     14 C11         18.5650    16.3310   -26.6530 c5         1 VWH      -0.077900
     15 C10         18.4640    15.1260   -27.5960 c5         1 VWH      -0.077900
     16 H1          22.3320    13.2900   -27.5200 h1         1 VWH       0.040200
     17 H2          23.3210    14.5230   -26.7380 h1         1 VWH       0.040200
     18 H3          21.4460    15.9690   -26.9300 h1         1 VWH       0.015700
     19 H4          20.0210    13.6040   -27.8890 hc         1 VWH       0.048950
     20 H5          20.3240    15.1160   -28.7320 hc         1 VWH       0.048950
     21 H6          21.7760     9.9830   -26.5360 ho         1 VWH       0.476000
     22 H7          24.7290    14.0040   -24.8690 ha         1 VWH       0.113000
     23 H8          25.8660    12.2860   -23.4940 ha         1 VWH       0.115000
     24 H9          25.1260     9.9310   -23.5920 ha         1 VWH       0.116000
     25 H10         23.0940     7.1130   -24.6830 h1         1 VWH       0.042700
     26 H11         24.7020     7.8830   -24.6660 h1         1 VWH       0.042700
     27 H12         23.5430     8.2030   -23.3460 h1         1 VWH       0.042700
     28 H13         21.6900    14.5020   -24.9470 hn         1 VWH       0.404000
     29 H15         20.1060    16.7460   -25.1280 hc         1 VWH       0.048950
     30 H16         19.2910    15.1850   -24.9730 hc         1 VWH       0.048950
     31 H17         18.8650    17.2220   -27.2130 hc         1 VWH       0.042200
     32 H18         17.6270    16.5600   -26.1450 hc         1 VWH       0.042200
     33 H19         17.9020    14.3280   -27.1020 hc         1 VWH       0.042200
     34 H20         17.9500    15.3540   -28.5310 hc         1 VWH       0.042200
     35 O           23.0680     9.0690   -25.1790 os         1 VWH      -0.377100
@<TRIPOS>BOND
     1     1     6 1   
     2     1    12 1   
     3     1    16 1   
     4     1    17 1   
     5     2     3 1   
     6     2    12 1   
     7     2    13 1   
     8     2    18 1   
     9     3    15 1   
    10     3    19 1   
    11     3    20 1   
    12     4     7 1   
    13     4    21 1   
    14     5     7 ar  
    15     5    10 ar  
    16     5    35 1   
    17     6     7 ar  
    18     6     8 ar  
    19     8     9 ar  
    20     8    22 1   
    21     9    10 ar  
    22     9    23 1   
    23    10    24 1   
    24    11    25 1   
    25    11    26 1   
    26    11    27 1   
    27    11    35 1   
    28    12    28 1   
    29    13    14 1   
    30    13    29 1   
    31    13    30 1   
    32    14    15 1   
    33    14    31 1   
    34    14    32 1   
    35    15    33 1   
    36    15    34 1   
@<TRIPOS>SUBSTRUCTURE
     1 VWH         1 TEMP              0 ****  ****    0 ROOT
