@<TRIPOS>MOLECULE
VWI
   17    17     1     0     0
SMALL
abcg2


@<TRIPOS>ATOM
      1 C1         -38.7550    53.1700    55.1300 ca         1 VWI      -0.041000
      2 C2         -37.5670    53.1240    55.8510 ca         1 VWI      -0.170500
      3 C3         -36.4590    53.8400    55.4170 ca         1 VWI      -0.041000
      4 C4         -36.5310    54.6050    54.2650 ca         1 VWI      -0.084500
      5 C5         -37.7240    54.6420    53.5610 ca         1 VWI      -0.173200
      6 O1         -38.8640    55.4830    51.7650 o          1 VWI      -0.426500
      7 N          -37.8070    55.4450    52.3480 no         1 VWI       0.696200
      8 C          -38.8410    53.9320    53.9790 ca         1 VWI      -0.084500
      9 O          -36.8140    56.0330    51.9890 o          1 VWI      -0.426500
     10 O2         -38.0760    53.0850    58.3830 o          1 VWI      -0.683533
     11 O3         -36.0630    51.9080    57.5960 o          1 VWI      -0.683533
     12 O4         -38.2960    50.9780    57.1220 o          1 VWI      -0.683533
     13 S          -37.4920    52.1810    57.3810 s6         1 VWI       1.257100
     14 H1         -39.6180    52.6050    55.4540 ha         1 VWI       0.141500
     15 H2         -35.5300    53.8000    55.9690 ha         1 VWI       0.141500
     16 H3         -35.6650    55.1570    53.9320 ha         1 VWI       0.131000
     17 H4         -39.7660    53.9610    53.4210 ha         1 VWI       0.131000
@<TRIPOS>BOND
     1     1     2 ar  
     2     1     8 ar  
     3     1    14 1   
     4     2     3 ar  
     5     2    13 1   
     6     3     4 ar  
     7     3    15 1   
     8     4     5 ar  
     9     4    16 1   
    10     5     7 1   
    11     5     8 ar  
    12     6     7 1   
    13     7     9 1   
    14     8    17 1   
    15    10    13 1   
    16    11    13 1   
    17    12    13 1   
@<TRIPOS>SUBSTRUCTURE
     1 VWI         1 TEMP              0 ****  ****    0 ROOT
