@<TRIPOS>MOLECULE
VWI
   17    17     1     0     0
SMALL
No Charge or Current Charge


@<TRIPOS>ATOM
      1 C1         -38.7640    53.1480    55.1410 ca         1 VWI      -0.041000
      2 C2         -37.5740    53.1130    55.8980 ca         1 VWI      -0.170500
      3 C3         -36.4640    53.8660    55.4620 ca         1 VWI      -0.041000
      4 C4         -36.5360    54.6320    54.2850 ca         1 VWI      -0.084500
      5 C5         -37.7260    54.6630    53.5190 ca         1 VWI      -0.173200
      6 O1         -38.8680    55.4770    51.6260 o          1 VWI      -0.426500
      7 N          -37.8050    55.4800    52.2620 no         1 VWI       0.696200
      8 C          -38.8400    53.9130    53.9630 ca         1 VWI      -0.084500
      9 O          -36.8040    56.1220    51.9150 o          1 VWI      -0.426500
     10 O2         -37.9260    53.0950    58.4580 o          1 VWI      -0.683533
     11 O3         -36.0540    51.7520    57.5140 o          1 VWI      -0.683533
     12 O4         -38.4190    51.0140    57.1840 o          1 VWI      -0.683533
     13 S          -37.4790    52.1120    57.4590 s6         1 VWI       1.257100
     14 H1         -39.6350    52.5830    55.4650 ha         1 VWI       0.141500
     15 H2         -35.5400    53.8620    56.0370 ha         1 VWI       0.141500
     16 H3         -35.6610    55.2000    53.9760 ha         1 VWI       0.131000
     17 H4         -39.7720    53.9160    53.4010 ha         1 VWI       0.131000
@<TRIPOS>BOND
     1     1     2 ar  
     2     1     8 ar  
     3     1    14 1   
     4     2     3 ar  
     5     2    13 1   
     6     3     4 ar  
     7     3    15 1   
     8     4     5 ar  
     9     4    16 1   
    10     5     7 1   
    11     5     8 ar  
    12     6     7 1   
    13     7     9 1   
    14     8    17 1   
    15    10    13 1   
    16    11    13 1   
    17    12    13 1   
@<TRIPOS>SUBSTRUCTURE
     1 VWI         1 TEMP              0 ****  ****    0 ROOT
