@<TRIPOS>MOLECULE
VWJ
   26    27     1     0     0
SMALL
abcg2


@<TRIPOS>ATOM
      1 N1         -10.0210    -0.9080   -75.9590 nu         1 VWJ      -0.906400
      2 N3          -9.2800     1.3150   -76.2280 na         1 VWJ      -0.361600
      3 C4          -9.0930    -0.0310   -76.3810 cc         1 VWJ       0.664700
      4 C5          -7.3320     0.8920   -77.1590 ca         1 VWJ       0.106400
      5 C6          -6.0960     1.1870   -77.7230 ca         1 VWJ      -0.072000
      6 C7          -5.7240     2.5220   -77.8360 ca         1 VWJ      -0.126000
      7 C8          -6.5610     3.5500   -77.3960 ca         1 VWJ      -0.112000
      8 C10         -8.1610     1.9430   -76.7220 ca         1 VWJ      -0.085200
      9 C1          -8.8370    -3.0400   -75.5520 c3         1 VWJ      -0.110100
     10 C2          -9.9950    -2.3370   -76.2510 c3         1 VWJ       0.266500
     11 C3         -10.0330    -2.6380   -77.7460 c3         1 VWJ      -0.110100
     12 N2          -7.9380    -0.3220   -76.9360 nd         1 VWJ      -0.651100
     13 C9          -7.8010     3.2750   -76.8290 ca         1 VWJ      -0.111000
     14 H1         -10.9160    -0.5250   -75.7020 hn         1 VWJ       0.479000
     15 H2         -10.0900     1.7610   -75.8290 hn         1 VWJ       0.349000
     16 H3          -5.4420     0.3950   -78.0680 ha         1 VWJ       0.125000
     17 H4          -4.7650     2.7710   -78.2720 ha         1 VWJ       0.110000
     18 H5          -6.2410     4.5780   -77.4990 ha         1 VWJ       0.110000
     19 H6          -8.8570    -2.8490   -74.4780 hc         1 VWJ       0.047867
     20 H7          -8.9130    -4.1180   -75.7030 hc         1 VWJ       0.047867
     21 H8          -7.8770    -2.7090   -75.9430 hc         1 VWJ       0.047867
     22 H9         -10.9210    -2.7140   -75.8120 h1         1 VWJ       0.038700
     23 H10        -10.1340    -3.7120   -77.9100 hc         1 VWJ       0.047867
     24 H11        -10.8840    -2.1470   -78.2200 hc         1 VWJ       0.047867
     25 H12         -9.1220    -2.3040   -78.2430 hc         1 VWJ       0.047867
     26 H14         -8.4520     4.0710   -76.4890 ha         1 VWJ       0.112000
@<TRIPOS>BOND
     1     1     3 1   
     2     1    10 1   
     3     1    14 1   
     4     2     3 1   
     5     2     8 1   
     6     2    15 1   
     7     3    12 2   
     8     4     5 ar  
     9     4     8 ar  
    10     4    12 1   
    11     5     6 ar  
    12     5    16 1   
    13     6     7 ar  
    14     6    17 1   
    15     7    13 ar  
    16     7    18 1   
    17     8    13 ar  
    18     9    10 1   
    19     9    19 1   
    20     9    20 1   
    21     9    21 1   
    22    10    11 1   
    23    10    22 1   
    24    11    23 1   
    25    11    24 1   
    26    11    25 1   
    27    13    26 1   
@<TRIPOS>SUBSTRUCTURE
     1 VWJ         1 TEMP              0 ****  ****    0 ROOT
