@<TRIPOS>MOLECULE
VWJ
   26    27     1     0     0
SMALL
No Charge or Current Charge


@<TRIPOS>ATOM
      1 N1         -10.0430    -0.9170   -76.1000 nu         1 VWJ      -0.906400
      2 N3          -9.2450     1.3410   -76.2330 na         1 VWJ      -0.361600
      3 C4          -9.0970    -0.0100   -76.4670 cc         1 VWJ       0.664700
      4 C5          -7.3420     0.9470   -77.2330 ca         1 VWJ       0.106400
      5 C6          -6.1030     1.2460   -77.8180 ca         1 VWJ      -0.072000
      6 C7          -5.6920     2.5980   -77.8640 ca         1 VWJ      -0.126000
      7 C8          -6.5180     3.6170   -77.3300 ca         1 VWJ      -0.112000
      8 C10         -8.1270     1.9430   -76.7220 ca         1 VWJ      -0.085200
      9 C1          -8.8940    -3.0350   -75.4770 c3         1 VWJ      -0.110100
     10 C2         -10.0370    -2.3760   -76.2750 c3         1 VWJ       0.266500
     11 C3         -10.0410    -2.7640   -77.7680 c3         1 VWJ      -0.110100
     12 N2          -7.9430    -0.3000   -77.0790 nd         1 VWJ      -0.651100
     13 C9          -7.7610     3.2930   -76.7460 ca         1 VWJ      -0.111000
     14 H1         -10.8540    -0.5050   -75.6450 hn         1 VWJ       0.479000
     15 H2         -10.0340     1.7820   -75.7850 hn         1 VWJ       0.349000
     16 H3          -5.4760     0.4560   -78.2250 ha         1 VWJ       0.125000
     17 H4          -4.7350     2.8560   -78.3130 ha         1 VWJ       0.110000
     18 H5          -6.1930     4.6550   -77.3700 ha         1 VWJ       0.110000
     19 H6          -8.9370    -2.7370   -74.4230 hc         1 VWJ       0.047867
     20 H7          -8.9790    -4.1270   -75.5230 hc         1 VWJ       0.047867
     21 H8          -7.9120    -2.7570   -75.8760 hc         1 VWJ       0.047867
     22 H9         -10.9750    -2.7610   -75.8510 h1         1 VWJ       0.038700
     23 H10        -10.1590    -3.8490   -77.8770 hc         1 VWJ       0.047867
     24 H11        -10.8750    -2.2800   -78.2900 hc         1 VWJ       0.047867
     25 H12         -9.1070    -2.4750   -78.2620 hc         1 VWJ       0.047867
     26 H14         -8.4070     4.0640   -76.3310 ha         1 VWJ       0.112000
@<TRIPOS>BOND
     1     1     3 1   
     2     1    10 1   
     3     1    14 1   
     4     2     3 1   
     5     2     8 1   
     6     2    15 1   
     7     3    12 2   
     8     4     5 ar  
     9     4     8 ar  
    10     4    12 1   
    11     5     6 ar  
    12     5    16 1   
    13     6     7 ar  
    14     6    17 1   
    15     7    13 ar  
    16     7    18 1   
    17     8    13 ar  
    18     9    10 1   
    19     9    19 1   
    20     9    20 1   
    21     9    21 1   
    22    10    11 1   
    23    10    22 1   
    24    11    23 1   
    25    11    24 1   
    26    11    25 1   
    27    13    26 1   
@<TRIPOS>SUBSTRUCTURE
     1 VWJ         1 TEMP              0 ****  ****    0 ROOT
