@<TRIPOS>MOLECULE
VWK
   47    49     1     0     0
SMALL
abcg2


@<TRIPOS>ATOM
      1 C1          44.4000   -55.1090    21.0010 c          1 VWK       0.596100
      2 N1          45.0320   -54.9540    22.1770 n          1 VWK      -0.401800
      3 C2          44.8270   -53.8010    23.0660 c3         1 VWK       0.094300
      4 N2          48.2610   -52.6180    28.5170 n1         1 VWK      -0.451000
      5 C3          46.0130   -55.9800    22.5430 c3         1 VWK       0.094300
      6 C10         47.9750   -50.4140    19.1320 ca         1 VWK      -0.077000
      7 C11         47.0740   -51.1870    19.8390 ca         1 VWK       0.047100
      8 C12         46.8410   -50.6710    22.1570 ca         1 VWK       0.151100
      9 C13         46.1240   -49.5120    21.9310 ca         1 VWK      -0.184000
     10 C14         45.7000   -48.7290    23.0250 ca         1 VWK      -0.068000
     11 C15         45.9870   -49.0920    24.3150 ca         1 VWK      -0.133000
     12 C16         46.7220   -50.2780    24.5690 ca         1 VWK      -0.019000
     13 C17         47.1540   -51.0910    23.4800 ca         1 VWK      -0.049000
     14 C18         47.8590   -52.2950    23.7380 ca         1 VWK      -0.074000
     15 C19         48.1370   -52.6880    25.0210 ca         1 VWK      -0.102000
     16 C20         47.7300   -51.8670    26.1020 ca         1 VWK      -0.006000
     17 C21         48.0190   -52.2800    27.4420 cg         1 VWK       0.321000
     18 C22         47.0290   -50.6970    25.8840 ca         1 VWK      -0.066000
     19 C4          43.4380   -54.0370    20.5160 c3         1 VWK      -0.155400
     20 C5          44.0650   -53.2210    19.4170 c3         1 VWK       0.170600
     21 C6          45.9540   -51.7540    19.2090 ca         1 VWK       0.145100
     22 C7          45.7720   -51.5440    17.8380 ca         1 VWK      -0.189000
     23 C8          46.6900   -50.7690    17.1260 ca         1 VWK      -0.067000
     24 C9          47.7870   -50.2010    17.7590 ca         1 VWK      -0.140000
     25 O1          44.6440   -56.0740    20.2650 o          1 VWK      -0.625100
     26 O2          45.1320   -52.4690    20.0110 os         1 VWK      -0.347100
     27 H1          45.4660   -53.9350    23.9360 h1         1 VWK       0.044200
     28 H2          45.1120   -52.8720    22.5670 h1         1 VWK       0.044200
     29 H3          43.7970   -53.7280    23.4150 h1         1 VWK       0.044200
     30 H4          46.4180   -55.7570    23.5290 h1         1 VWK       0.044200
     31 H5          45.5610   -56.9810    22.5760 h1         1 VWK       0.044200
     32 H6          46.8380   -56.0150    21.8240 h1         1 VWK       0.044200
     33 H7          48.8270   -50.0000    19.6560 ha         1 VWK       0.131000
     34 H8          45.8890   -49.1980    20.9220 ha         1 VWK       0.130000
     35 H9          45.1580   -47.7990    22.8220 ha         1 VWK       0.118000
     36 H10         45.6720   -48.4820    25.1510 ha         1 VWK       0.120000
     37 H11         48.1570   -52.9150    22.9050 ha         1 VWK       0.138000
     38 H12         48.6660   -53.6140    25.2200 ha         1 VWK       0.128000
     39 H13         46.7120   -50.0830    26.7210 ha         1 VWK       0.127000
     40 H14         43.0830   -53.3770    21.3060 hc         1 VWK       0.074200
     41 H15         42.5710   -54.5520    20.1020 hc         1 VWK       0.074200
     42 H16         43.3330   -52.5440    18.9750 h1         1 VWK       0.051200
     43 H17         44.4640   -53.8690    18.6460 h1         1 VWK       0.051200
     44 H18         44.9250   -51.9760    17.3240 ha         1 VWK       0.123000
     45 H19         46.5380   -50.6180    16.0590 ha         1 VWK       0.119000
     46 H20         48.4910   -49.6000    17.2010 ha         1 VWK       0.123000
     47 O3          47.3150   -51.4960    21.1720 os         1 VWK      -0.241200
@<TRIPOS>BOND
     1     1     2 1   
     2     1    19 1   
     3     1    25 2   
     4     2     3 1   
     5     2     5 1   
     6     3    27 1   
     7     3    28 1   
     8     3    29 1   
     9     4    17 3   
    10     5    30 1   
    11     5    31 1   
    12     5    32 1   
    13     6     7 ar  
    14     6    24 ar  
    15     6    33 1   
    16     7    21 ar  
    17     7    47 1   
    18     8     9 ar  
    19     8    13 ar  
    20     8    47 1   
    21     9    10 ar  
    22     9    34 1   
    23    10    11 ar  
    24    10    35 1   
    25    11    12 ar  
    26    11    36 1   
    27    12    13 ar  
    28    12    18 ar  
    29    13    14 ar  
    30    14    15 ar  
    31    14    37 1   
    32    15    16 ar  
    33    15    38 1   
    34    16    17 1   
    35    16    18 ar  
    36    18    39 1   
    37    19    20 1   
    38    19    40 1   
    39    19    41 1   
    40    20    26 1   
    41    20    42 1   
    42    20    43 1   
    43    21    22 ar  
    44    21    26 1   
    45    22    23 ar  
    46    22    44 1   
    47    23    24 ar  
    48    23    45 1   
    49    24    46 1   
@<TRIPOS>SUBSTRUCTURE
     1 VWK         1 TEMP              0 ****  ****    0 ROOT
