@<TRIPOS>MOLECULE
VWK
   47    49     1     0     0
SMALL
No Charge or Current Charge


@<TRIPOS>ATOM
      1 C1          44.5860   -54.7710    21.3640 c          1 VWK       0.596100
      2 N1          44.9660   -54.3790    22.6710 n          1 VWK      -0.401800
      3 C2          44.3860   -53.1960    23.3470 c3         1 VWK       0.094300
      4 N2          48.2010   -53.4350    28.2210 n1         1 VWK      -0.451000
      5 C3          45.9600   -55.1780    23.4230 c3         1 VWK       0.094300
      6 C10         48.1680   -50.3370    18.7770 ca         1 VWK      -0.077000
      7 C11         47.3220   -51.1010    19.5990 ca         1 VWK       0.047100
      8 C12         47.0230   -50.8360    21.9950 ca         1 VWK       0.151100
      9 C13         46.0920   -49.7840    21.8530 ca         1 VWK      -0.184000
     10 C14         45.4180   -49.2790    22.9760 ca         1 VWK      -0.068000
     11 C15         45.6730   -49.8130    24.2480 ca         1 VWK      -0.133000
     12 C16         46.6050   -50.8560    24.4050 ca         1 VWK      -0.019000
     13 C17         47.2850   -51.3720    23.2780 ca         1 VWK      -0.049000
     14 C18         48.2120   -52.4240    23.4530 ca         1 VWK      -0.074000
     15 C19         48.4520   -52.9530    24.7320 ca         1 VWK      -0.102000
     16 C20         47.7710   -52.4400    25.8520 ca         1 VWK      -0.006000
     17 C21         48.0130   -52.9860    27.1590 cg         1 VWK       0.321000
     18 C22         46.8500   -51.3890    25.6840 ca         1 VWK      -0.066000
     19 C4          43.5660   -53.9370    20.5700 c3         1 VWK      -0.155400
     20 C5          44.2370   -53.2110    19.3920 c3         1 VWK       0.170600
     21 C6          46.1280   -51.6540    19.0780 ca         1 VWK       0.145100
     22 C7          45.7920   -51.4140    17.7250 ca         1 VWK      -0.189000
     23 C8          46.6380   -50.6390    16.9110 ca         1 VWK      -0.067000
     24 C9          47.8240   -50.1020    17.4360 ca         1 VWK      -0.140000
     25 O1          45.0430   -55.7960    20.8710 o          1 VWK      -0.625100
     26 O2          45.3220   -52.4200    19.9040 os         1 VWK      -0.347100
     27 H1          44.8450   -53.0440    24.3310 h1         1 VWK       0.044200
     28 H2          44.5570   -52.2990    22.7390 h1         1 VWK       0.044200
     29 H3          43.3070   -53.3410    23.4870 h1         1 VWK       0.044200
     30 H4          46.1170   -54.7680    24.4290 h1         1 VWK       0.044200
     31 H5          45.6080   -56.2140    23.5180 h1         1 VWK       0.044200
     32 H6          46.9180   -55.1730    22.8870 h1         1 VWK       0.044200
     33 H7          49.0900   -49.9260    19.1830 ha         1 VWK       0.131000
     34 H8          45.8900   -49.3510    20.8780 ha         1 VWK       0.130000
     35 H9          44.6990   -48.4700    22.8610 ha         1 VWK       0.118000
     36 H10         45.1460   -49.4140    25.1120 ha         1 VWK       0.120000
     37 H11         48.7460   -52.8400    22.6020 ha         1 VWK       0.138000
     38 H12         49.1670   -53.7660    24.8510 ha         1 VWK       0.128000
     39 H13         46.3210   -50.9900    26.5480 ha         1 VWK       0.127000
     40 H14         43.0580   -53.1900    21.1840 hc         1 VWK       0.074200
     41 H15         42.8170   -54.6170    20.1510 hc         1 VWK       0.074200
     42 H16         43.4910   -52.5790    18.8920 h1         1 VWK       0.051200
     43 H17         44.6090   -53.9490    18.6690 h1         1 VWK       0.051200
     44 H18         44.8840   -51.8160    17.2870 ha         1 VWK       0.123000
     45 H19         46.3740   -50.4560    15.8710 ha         1 VWK       0.119000
     46 H20         48.4780   -49.5060    16.8030 ha         1 VWK       0.123000
     47 O3          47.7070   -51.3300    20.9020 os         1 VWK      -0.241200
@<TRIPOS>BOND
     1     1     2 1   
     2     1    19 1   
     3     1    25 2   
     4     2     3 1   
     5     2     5 1   
     6     3    27 1   
     7     3    28 1   
     8     3    29 1   
     9     4    17 3   
    10     5    30 1   
    11     5    31 1   
    12     5    32 1   
    13     6     7 ar  
    14     6    24 ar  
    15     6    33 1   
    16     7    21 ar  
    17     7    47 1   
    18     8     9 ar  
    19     8    13 ar  
    20     8    47 1   
    21     9    10 ar  
    22     9    34 1   
    23    10    11 ar  
    24    10    35 1   
    25    11    12 ar  
    26    11    36 1   
    27    12    13 ar  
    28    12    18 ar  
    29    13    14 ar  
    30    14    15 ar  
    31    14    37 1   
    32    15    16 ar  
    33    15    38 1   
    34    16    17 1   
    35    16    18 ar  
    36    18    39 1   
    37    19    20 1   
    38    19    40 1   
    39    19    41 1   
    40    20    26 1   
    41    20    42 1   
    42    20    43 1   
    43    21    22 ar  
    44    21    26 1   
    45    22    23 ar  
    46    22    44 1   
    47    23    24 ar  
    48    23    45 1   
    49    24    46 1   
@<TRIPOS>SUBSTRUCTURE
     1 VWK         1 TEMP              0 ****  ****    0 ROOT
