@<TRIPOS>MOLECULE
VWL
   28    29     1     0     0
SMALL
No Charge or Current Charge


@<TRIPOS>ATOM
      1 N1          22.6460     8.6720   -25.8520 nv         1 VWL      -1.067000
      2 C7          22.7560    12.0860   -24.4540 ca         1 VWL      -0.104500
      3 C8          22.5460    11.0210   -25.3510 ca         1 VWL      -0.147500
      4 C9          22.8530     9.7050   -24.9750 ca         1 VWL       0.258000
      5 C1          24.1500    16.4420   -19.3820 cc         1 VWL       0.131300
      6 C5          23.3340    14.2390   -22.2280 c          1 VWL       0.644700
      7 C6          23.2780    11.8380   -23.1650 ca         1 VWL      -0.065000
      8 C4          24.2420    14.2840   -19.8540 cc         1 VWL       0.162900
      9 C3          23.7350    14.9120   -20.9650 cd         1 VWL      -0.222600
     10 C2          23.6790    16.2920   -20.6550 cd         1 VWL      -0.131000
     11 O           24.5020    15.2150   -18.8720 os         1 VWL      -0.250000
     12 N           23.5190    12.8600   -22.2020 ns         1 VWL      -0.141000
     13 C11         23.5840    10.5130   -22.7980 ca         1 VWL      -0.104500
     14 C10         23.3720     9.4530   -23.6980 ca         1 VWL      -0.147500
     15 H1          22.7530     7.7080   -25.5410 hn         1 VWL       0.442000
     16 H2          22.1590     8.8360   -26.7310 hn         1 VWL       0.442000
     17 H3          22.5060    13.0890   -24.7830 ha         1 VWL       0.126000
     18 H4          22.1440    11.2250   -26.3390 ha         1 VWL       0.114500
     19 H5          24.4590    13.2480   -19.6320 h4         1 VWL       0.052100
     20 H6          23.3290    17.0890   -21.3030 ha         1 VWL       0.160000
     21 H7          23.7250    17.5870   -17.6150 hc         1 VWL       0.057367
     22 H8          25.3730    17.7910   -18.2420 hc         1 VWL       0.057367
     23 H9          24.0060    18.5650   -19.0680 hc         1 VWL       0.057367
     24 H10         23.8970    12.5130   -21.3310 hn         1 VWL       0.145000
     25 H11         23.9870    10.3000   -21.8100 ha         1 VWL       0.126000
     26 H12         23.6140     8.4370   -23.3970 ha         1 VWL       0.114500
     27 C           24.3230    17.6640   -18.5300 c3         1 VWL      -0.121400
     28 O1          22.8870    14.8640   -23.1830 o          1 VWL      -0.587100
@<TRIPOS>BOND
     1     1     4 1   
     2     1    15 1   
     3     1    16 1   
     4     2     3 ar  
     5     2     7 ar  
     6     2    17 1   
     7     3     4 ar  
     8     3    18 1   
     9     4    14 ar  
    10     5    10 2   
    11     5    11 1   
    12     5    27 1   
    13     6     9 1   
    14     6    12 1   
    15     6    28 2   
    16     7    12 1   
    17     7    13 ar  
    18     8     9 2   
    19     8    11 1   
    20     8    19 1   
    21     9    10 1   
    22    10    20 1   
    23    12    24 1   
    24    13    14 ar  
    25    13    25 1   
    26    14    26 1   
    27    21    27 1   
    28    22    27 1   
    29    23    27 1   
@<TRIPOS>SUBSTRUCTURE
     1 VWL         1 TEMP              0 ****  ****    0 ROOT
