@<TRIPOS>MOLECULE
VWL
   28    29     1     0     0
SMALL
abcg2


@<TRIPOS>ATOM
      1 N1          22.7450     8.7980   -26.0280 nv         1 VWL      -1.067000
      2 C7          22.5700    12.0520   -24.2620 ca         1 VWL      -0.104500
      3 C8          22.3690    11.0570   -25.2090 ca         1 VWL      -0.147500
      4 C9          22.9010     9.7730   -25.0440 ca         1 VWL       0.258000
      5 C1          24.1010    16.4820   -19.4440 cc         1 VWL       0.131300
      6 C5          23.4170    14.0860   -22.1370 c          1 VWL       0.644700
      7 C6          23.3210    11.7900   -23.1150 ca         1 VWL      -0.065000
      8 C4          23.7720    14.3030   -19.6020 cc         1 VWL       0.162900
      9 C3          23.6960    14.7960   -20.8700 cd         1 VWL      -0.222600
     10 C2          23.9050    16.2140   -20.7570 cd         1 VWL      -0.131000
     11 O           24.0170    15.3100   -18.7260 os         1 VWL      -0.250000
     12 N           23.5470    12.7340   -22.0900 ns         1 VWL      -0.141000
     13 C11         23.8540    10.5090   -22.9440 ca         1 VWL      -0.104500
     14 C10         23.6460     9.5160   -23.8860 ca         1 VWL      -0.147500
     15 H1          22.8330     7.8470   -25.7010 hn         1 VWL       0.442000
     16 H2          21.9310     8.9140   -26.6150 hn         1 VWL       0.442000
     17 H3          22.1440    13.0300   -24.4140 ha         1 VWL       0.126000
     18 H4          21.7840    11.2780   -26.0940 ha         1 VWL       0.114500
     19 H5          23.6590    13.3210   -19.1750 h4         1 VWL       0.052100
     20 H6          23.9080    16.9280   -21.5630 ha         1 VWL       0.160000
     21 H7          23.5950    17.9020   -17.9330 hc         1 VWL       0.057367
     22 H8          25.3290    17.6470   -18.1450 hc         1 VWL       0.057367
     23 H9          24.4180    18.5670   -19.3540 hc         1 VWL       0.057367
     24 H10         23.9310    12.3500   -21.2400 hn         1 VWL       0.145000
     25 H11         24.4330    10.2870   -22.0550 ha         1 VWL       0.126000
     26 H12         24.0650     8.5290   -23.7270 ha         1 VWL       0.114500
     27 C           24.3760    17.7180   -18.6750 c3         1 VWL      -0.121400
     28 O1          23.0900    14.7080   -23.1500 o          1 VWL      -0.587100
@<TRIPOS>BOND
     1     1     4 1   
     2     1    15 1   
     3     1    16 1   
     4     2     3 ar  
     5     2     7 ar  
     6     2    17 1   
     7     3     4 ar  
     8     3    18 1   
     9     4    14 ar  
    10     5    10 2   
    11     5    11 1   
    12     5    27 1   
    13     6     9 1   
    14     6    12 1   
    15     6    28 2   
    16     7    12 1   
    17     7    13 ar  
    18     8     9 2   
    19     8    11 1   
    20     8    19 1   
    21     9    10 1   
    22    10    20 1   
    23    12    24 1   
    24    13    14 ar  
    25    13    25 1   
    26    14    26 1   
    27    21    27 1   
    28    22    27 1   
    29    23    27 1   
@<TRIPOS>SUBSTRUCTURE
     1 VWL         1 TEMP              0 ****  ****    0 ROOT
