@<TRIPOS>MOLECULE
VWM
   25    25     1     0     0
SMALL
abcg2


@<TRIPOS>ATOM
      1 N1         -29.2120    14.4380   -21.7440 n          1 VWM      -0.392800
      2 C4         -28.6390    14.7770   -24.1020 c6         1 VWM      -0.092400
      3 C5         -29.9040    15.6130   -24.2690 c6         1 VWM      -0.064400
      4 C6         -30.9800    15.2080   -23.2560 c6         1 VWM       0.013000
      5 C7         -30.3800    15.2920   -21.8470 c6         1 VWM       0.094000
      6 C8         -32.2130    16.1450   -23.3480 c          1 VWM       0.700000
      7 C1         -28.0200    12.4080   -21.0770 c3         1 VWM      -0.177100
      8 C2         -29.2410    13.2990   -21.0170 c          1 VWM       0.610100
      9 O1         -30.1980    12.9910   -20.3150 o          1 VWM      -0.621100
     10 C3         -28.1500    14.8170   -22.6590 c6         1 VWM       0.108000
     11 O2         -31.4050    13.8900   -23.5070 oh         1 VWM      -0.701000
     12 O3         -32.0420    17.3550   -23.1390 o          1 VWM      -0.711500
     13 O4         -33.2860    15.5590   -23.6250 o          1 VWM      -0.711500
     14 H7         -27.8480    15.1520   -24.7560 hc         1 VWM       0.030700
     15 H6         -28.8250    13.7400   -24.3920 hc         1 VWM       0.030700
     16 H9         -29.6600    16.6690   -24.1270 hc         1 VWM       0.043200
     17 H8         -30.2940    15.5140   -25.2860 hc         1 VWM       0.043200
     18 H12        -30.0770    16.3230   -21.6390 h1         1 VWM       0.064200
     19 H11        -31.1110    15.0010   -21.0960 h1         1 VWM       0.064200
     20 H2         -28.1770    11.5510   -20.4270 hc         1 VWM       0.045700
     21 H1         -27.8350    12.0410   -22.0880 hc         1 VWM       0.045700
     22 H3         -27.1180    12.9270   -20.7500 hc         1 VWM       0.045700
     23 H4         -27.8310    15.8350   -22.4090 h1         1 VWM       0.027700
     24 H5         -27.2820    14.1770   -22.5300 h1         1 VWM       0.027700
     25 H10        -32.3630    14.0200   -23.6570 ho         1 VWM       0.478000
@<TRIPOS>BOND
     1     1     5 1   
     2     1     8 1   
     3     1    10 1   
     4     2     3 1   
     5     2    10 1   
     6     2    14 1   
     7     2    15 1   
     8     3     4 1   
     9     3    16 1   
    10     3    17 1   
    11     4     5 1   
    12     4     6 1   
    13     4    11 1   
    14     5    18 1   
    15     5    19 1   
    16     6    12 1   
    17     6    13 1   
    18     7     8 1   
    19     7    20 1   
    20     7    21 1   
    21     7    22 1   
    22     8     9 2   
    23    10    23 1   
    24    10    24 1   
    25    11    25 1   
@<TRIPOS>SUBSTRUCTURE
     1 VWM         1 TEMP              0 ****  ****    0 ROOT
