@<TRIPOS>MOLECULE
VWM
   25    25     1     0     0
SMALL
No Charge or Current Charge


@<TRIPOS>ATOM
      1 N1         -29.1590    14.4350   -21.7410 n          1 VWM      -0.392800
      2 C4         -28.7320    14.6590   -24.1840 c6         1 VWM      -0.092400
      3 C5         -29.9870    15.5640   -24.3090 c6         1 VWM      -0.064400
      4 C6         -31.0670    15.2630   -23.2170 c6         1 VWM       0.013000
      5 C7         -30.3480    15.3320   -21.8250 c6         1 VWM       0.094000
      6 C8         -32.2090    16.3630   -23.3050 c          1 VWM       0.700000
      7 C1         -27.8940    12.3900   -20.9030 c3         1 VWM      -0.177100
      8 C2         -29.1190    13.3120   -20.8800 c          1 VWM       0.610100
      9 O1         -30.0350    13.0780   -20.1000 o          1 VWM      -0.621100
     10 C3         -28.1290    14.7450   -22.7660 c6         1 VWM       0.108000
     11 O2         -31.6190    13.9310   -23.4420 oh         1 VWM      -0.701000
     12 O3         -32.7160    16.7410   -22.2570 o          1 VWM      -0.711500
     13 O4         -32.8550    16.3780   -24.3460 o          1 VWM      -0.711500
     14 H7         -27.9800    14.9580   -24.9260 hc         1 VWM       0.030700
     15 H6         -28.9960    13.6170   -24.4100 hc         1 VWM       0.030700
     16 H9         -29.6760    16.6160   -24.2310 hc         1 VWM       0.043200
     17 H8         -30.4180    15.4520   -25.3140 hc         1 VWM       0.043200
     18 H12        -30.0170    16.3650   -21.6420 h1         1 VWM       0.064200
     19 H11        -31.0690    15.0920   -21.0310 h1         1 VWM       0.064200
     20 H2         -27.9680    11.5730   -20.1760 hc         1 VWM       0.045700
     21 H1         -27.7510    12.0040   -21.9180 hc         1 VWM       0.045700
     22 H3         -26.9890    12.9860   -20.7380 hc         1 VWM       0.045700
     23 H4         -27.7580    15.7650   -22.5920 h1         1 VWM       0.027700
     24 H5         -27.2630    14.0750   -22.7000 h1         1 VWM       0.027700
     25 H10        -32.3370    14.0490   -24.1080 ho         1 VWM       0.478000
@<TRIPOS>BOND
     1     1     5 1   
     2     1     8 1   
     3     1    10 1   
     4     2     3 1   
     5     2    10 1   
     6     2    14 1   
     7     2    15 1   
     8     3     4 1   
     9     3    16 1   
    10     3    17 1   
    11     4     5 1   
    12     4     6 1   
    13     4    11 1   
    14     5    18 1   
    15     5    19 1   
    16     6    12 1   
    17     6    13 1   
    18     7     8 1   
    19     7    20 1   
    20     7    21 1   
    21     7    22 1   
    22     8     9 2   
    23    10    23 1   
    24    10    24 1   
    25    11    25 1   
@<TRIPOS>SUBSTRUCTURE
     1 VWM         1 TEMP              0 ****  ****    0 ROOT
