@<TRIPOS>MOLECULE
VWN
   43    46     1     0     0
SMALL
bcc


@<TRIPOS>ATOM
      1 C1          -2.1590    -0.0620     0.1020 cc         1 VWN       0.456600
      2 N2          -2.0210    -1.4040     0.0340 nh         1 VWN      -0.664400
      3 C3          -3.1540    -2.3060    -0.0190 c6         1 VWN       0.182300
      4 C4          -2.8420    -3.4740    -0.9410 c6         1 VWN       0.116400
      5 O5          -1.6510    -4.1330    -0.5830 os         1 VWN      -0.395600
      6 C6          -0.5600    -3.2410    -0.6100 c6         1 VWN       0.116400
      7 C7          -0.7670    -2.0760     0.3380 c6         1 VWN       0.182300
      8 N8          -0.9840     0.6320     0.1660 nc         1 VWN      -0.700300
      9 C9          -1.0250     1.9190     0.1650 cd         1 VWN       0.532900
     10 N10         -2.1690     2.6200     0.1190 ns         1 VWN      -0.486400
     11 C11         -3.4300     2.0140     0.0930 c          1 VWN       0.725700
     12 C12         -3.3790     0.5960     0.0920 cd         1 VWN      -0.438200
     13 O13         -4.4340     2.7190     0.0790 o          1 VWN      -0.636500
     14 C14          1.4570     1.8340     0.2850 cc         1 VWN       0.433800
     15 C15          0.2550     2.7050     0.2030 c3         1 VWN      -0.141000
     16 N16          1.8950     1.0770    -0.7580 na         1 VWN      -0.132300
     17 N17          2.2000     1.7210     1.3520 nd         1 VWN      -0.569100
     18 C18          3.1810     0.8220     1.0140 ca         1 VWN       0.071400
     19 C19          2.9990     0.3990    -0.3120 ca         1 VWN      -0.079200
     20 C20          3.8370    -0.5250    -0.9270 ca         1 VWN      -0.135000
     21 C21          4.8840    -1.0150    -0.1650 ca         1 VWN      -0.111000
     22 C22          5.0840    -0.6000     1.1600 ca         1 VWN      -0.154000
     23 C23          4.2420     0.3180     1.7640 ca         1 VWN      -0.065000
     24 C24          1.2810     0.9070    -2.0520 c3         1 VWN       0.040600
     25 H12         -4.3220     0.0720     0.0820 ha         1 VWN       0.162000
     26 H31C        -3.4010    -2.6640     0.9870 h1         1 VWN       0.066700
     27 H32C        -4.0320    -1.8010    -0.4160 h1         1 VWN       0.066700
     28 H71C         0.0600    -1.3770     0.2480 h1         1 VWN       0.066700
     29 H72C        -0.7880    -2.4380     1.3720 h1         1 VWN       0.066700
     30 H41C        -3.6520    -4.2020    -0.8890 h1         1 VWN       0.054450
     31 H42C        -2.7830    -3.1050    -1.9740 h1         1 VWN       0.054450
     32 H61C         0.3300    -3.7990    -0.3130 h1         1 VWN       0.054450
     33 H62C        -0.3970    -2.8610    -1.6290 h1         1 VWN       0.054450
     34 H10         -2.1380     3.6310     0.1210 hn         1 VWN       0.329500
     35 H151         0.3000     3.3590    -0.6750 hc         1 VWN       0.088200
     36 H152         0.2500     3.3620     1.0750 hc         1 VWN       0.088200
     37 H241         2.0410     0.9360    -2.8300 h1         1 VWN       0.051033
     38 H242         0.7470    -0.0420    -2.1060 h1         1 VWN       0.051033
     39 H243         0.5720     1.7080    -2.2410 h1         1 VWN       0.051033
     40 H23          4.3990     0.6340     2.7870 ha         1 VWN       0.147000
     41 H20          3.6830    -0.8520    -1.9480 ha         1 VWN       0.134000
     42 H21          5.5620    -1.7360    -0.6020 ha         1 VWN       0.130000
     43 H22          5.9140    -1.0110     1.7200 ha         1 VWN       0.133000
@<TRIPOS>BOND
     1     1     2 1   
     2     1     8 1   
     3     1    12 2   
     4     2     3 1   
     5     2     7 1   
     6     3     4 1   
     7     3    26 1   
     8     3    27 1   
     9     4     5 1   
    10     4    30 1   
    11     4    31 1   
    12     5     6 1   
    13     6     7 1   
    14     6    32 1   
    15     6    33 1   
    16     7    28 1   
    17     7    29 1   
    18     8     9 2   
    19     9    10 1   
    20     9    15 1   
    21    10    11 1   
    22    10    34 1   
    23    11    12 1   
    24    11    13 2   
    25    12    25 1   
    26    14    15 1   
    27    14    16 1   
    28    14    17 2   
    29    15    35 1   
    30    15    36 1   
    31    16    19 1   
    32    16    24 1   
    33    17    18 1   
    34    18    19 ar  
    35    18    23 ar  
    36    19    20 ar  
    37    20    21 ar  
    38    20    41 1   
    39    21    22 ar  
    40    21    42 1   
    41    22    23 ar  
    42    22    43 1   
    43    23    40 1   
    44    24    37 1   
    45    24    38 1   
    46    24    39 1   
@<TRIPOS>SUBSTRUCTURE
     1 VWN         1 TEMP              0 ****  ****    0 ROOT
