@<TRIPOS>MOLECULE
VWN
   43    46     1     0     0
SMALL
No Charge or Current Charge


@<TRIPOS>ATOM
      1 C1          -2.1240    -0.4940     0.0210 cc         1 VWN       0.456600
      2 N2          -2.5890    -1.6580    -0.5490 nh         1 VWN      -0.664400
      3 C3          -3.8500    -2.3210    -0.0780 c6         1 VWN       0.182300
      4 C4          -4.5600    -3.1200    -1.2090 c6         1 VWN       0.139600
      5 O5          -3.6390    -4.0230    -1.8600 os         1 VWN      -0.442000
      6 C6          -2.5230    -3.3310    -2.4640 c6         1 VWN       0.139600
      7 C7          -1.7120    -2.5490    -1.3910 c6         1 VWN       0.182300
      8 N8          -1.1780     0.1610    -0.7190 nc         1 VWN      -0.700300
      9 C9          -0.7190     1.2880    -0.1970 cd         1 VWN       0.532900
     10 N10         -1.1280     1.8100     0.9890 ns         1 VWN      -0.419400
     11 C11         -2.0560     1.2340     1.7780 c          1 VWN       0.583200
     12 C12         -2.5660    -0.0010     1.2180 cd         1 VWN      -0.488200
     13 O13         -2.4140     1.7070     2.8410 o          1 VWN      -0.561000
     14 C14          1.6860     1.8240    -0.3340 cc         1 VWN       0.433800
     15 C15          0.3350     2.0520    -0.9280 c3         1 VWN      -0.141000
     16 N16          2.4540     0.6640    -0.4960 na         1 VWN      -0.161600
     17 N17          2.3140     2.7120     0.4640 nd         1 VWN      -0.569100
     18 C18          3.5050     2.0730     0.8030 ca         1 VWN       0.071400
     19 C19          3.5950     0.8350     0.2300 ca         1 VWN      -0.079200
     20 C20          4.6960    -0.0140     0.4250 ca         1 VWN      -0.117000
     21 C21          5.7410     0.4540     1.2480 ca         1 VWN      -0.093000
     22 C22          5.6610     1.7350     1.8450 ca         1 VWN      -0.136000
     23 C23          4.5330     2.5570     1.6250 ca         1 VWN      -0.047000
     24 C24          2.1480    -0.5660    -1.2480 c3         1 VWN       0.069900
     25 H12         -3.3020    -0.5020     1.8270 ha         1 VWN       0.212000
     26 H31C        -3.6240    -3.0050     0.7540 h1         1 VWN       0.066700
     27 H32C        -4.5630    -1.5750     0.3010 h1         1 VWN       0.066700
     28 H71C        -0.9280    -1.9840    -1.9140 h1         1 VWN       0.066700
     29 H72C        -1.1970    -3.2730    -0.7440 h1         1 VWN       0.066700
     30 H41C        -5.3950    -3.6980    -0.7890 h1         1 VWN       0.054450
     31 H42C        -4.9710    -2.4240    -1.9540 h1         1 VWN       0.054450
     32 H61C        -1.8720    -4.0630    -2.9620 h1         1 VWN       0.054450
     33 H62C        -2.8990    -2.6350    -3.2280 h1         1 VWN       0.054450
     34 H10         -0.7270     2.6710     1.3310 hn         1 VWN       0.329500
     35 H151         0.3470     1.7690    -1.9860 hc         1 VWN       0.088200
     36 H152         0.0990     3.1210    -0.9110 hc         1 VWN       0.088200
     37 H241         3.0530    -0.9310    -1.7510 h1         1 VWN       0.051033
     38 H242         1.7810    -1.3350    -0.5580 h1         1 VWN       0.051033
     39 H243         1.3820    -0.3670    -2.0070 h1         1 VWN       0.051033
     40 H23          4.4610     3.5420     2.0810 ha         1 VWN       0.129000
     41 H20          4.7470    -0.9970    -0.0360 ha         1 VWN       0.116000
     42 H21          6.6130    -0.1720     1.4240 ha         1 VWN       0.112000
     43 H22          6.4710     2.0890     2.4780 ha         1 VWN       0.115000
@<TRIPOS>BOND
     1     1     2 1   
     2     1     8 1   
     3     1    12 2   
     4     2     3 1   
     5     2     7 1   
     6     3     4 1   
     7     3    26 1   
     8     3    27 1   
     9     4     5 1   
    10     4    30 1   
    11     4    31 1   
    12     5     6 1   
    13     6     7 1   
    14     6    32 1   
    15     6    33 1   
    16     7    28 1   
    17     7    29 1   
    18     8     9 2   
    19     9    10 1   
    20     9    15 1   
    21    10    11 1   
    22    10    34 1   
    23    11    12 1   
    24    11    13 2   
    25    12    25 1   
    26    14    15 1   
    27    14    16 1   
    28    14    17 2   
    29    15    35 1   
    30    15    36 1   
    31    16    19 1   
    32    16    24 1   
    33    17    18 1   
    34    18    19 ar  
    35    18    23 ar  
    36    19    20 ar  
    37    20    21 ar  
    38    20    41 1   
    39    21    22 ar  
    40    21    42 1   
    41    22    23 ar  
    42    22    43 1   
    43    23    40 1   
    44    24    37 1   
    45    24    38 1   
    46    24    39 1   
@<TRIPOS>SUBSTRUCTURE
     1 VWN         1 TEMP              0 ****  ****    0 ROOT
