@<TRIPOS>MOLECULE
VWR
   25    26     1     0     0
SMALL
No Charge or Current Charge


@<TRIPOS>ATOM
      1 N1           1.9100    14.4850   -38.9040 nc         1 VWR      -0.444000
      2 C7          -2.7620    12.9290   -36.4340 cc         1 VWR      -0.229000
      3 N2           2.1590    14.3900   -40.2560 nc         1 VWR      -0.026000
      4 C1          -0.0410    17.1530   -40.3960 c3         1 VWR       0.087600
      5 C5          -2.0030    15.0520   -35.8260 cd         1 VWR      -0.129000
      6 C6          -3.0980    14.1500   -35.9070 cd         1 VWR      -0.128000
      7 N3           1.5210    15.3010   -40.9480 nd         1 VWR      -0.211800
      8 C4          -0.8230    14.5240   -36.2900 cc         1 VWR      -0.244300
      9 C3           0.5210    15.1830   -36.3650 c3         1 VWR       0.307100
     10 C2           1.0880    15.4990   -38.7900 cd         1 VWR       0.649400
     11 N4           0.5730    15.9480   -37.6110 nu         1 VWR      -0.912100
     12 C           -1.5300    16.7610   -40.4640 c3         1 VWR      -0.115100
     13 N            0.8290    16.0240   -40.0280 na         1 VWR      -0.145700
     14 S           -1.0510    12.8690   -36.8490 ss         1 VWR       0.208000
     15 H2           0.2740    17.5390   -41.3740 h1         1 VWR       0.068700
     16 H3           0.0940    17.9590   -39.6640 h1         1 VWR       0.068700
     17 H4          -2.0930    16.0610   -35.4360 ha         1 VWR       0.122000
     18 H5          -4.1040    14.4030   -35.5840 ha         1 VWR       0.135000
     19 H6           1.3150    14.4230   -36.3210 h1         1 VWR       0.075700
     20 H7           0.6520    15.8490   -35.5000 h1         1 VWR       0.075700
     21 H8          -0.1400    16.6610   -37.7280 hn         1 VWR       0.483000
     22 H9          -2.1400    17.6290   -40.7420 hc         1 VWR       0.051033
     23 H10         -1.6880    15.9760   -41.2130 hc         1 VWR       0.051033
     24 H11         -1.8820    16.3900   -39.4940 hc         1 VWR       0.051033
     25 H1          -3.3860    12.0620   -36.6100 h4         1 VWR       0.153000
@<TRIPOS>BOND
     1     1     3 1   
     2     1    10 2   
     3     2     6 2   
     4     2    14 1   
     5     2    25 1   
     6     3     7 2   
     7     4    12 1   
     8     4    13 1   
     9     4    15 1   
    10     4    16 1   
    11     5     6 1   
    12     5     8 2   
    13     5    17 1   
    14     6    18 1   
    15     7    13 1   
    16     8     9 1   
    17     8    14 1   
    18     9    11 1   
    19     9    19 1   
    20     9    20 1   
    21    10    11 1   
    22    10    13 1   
    23    11    21 1   
    24    12    22 1   
    25    12    23 1   
    26    12    24 1   
@<TRIPOS>SUBSTRUCTURE
     1 VWR         1 TEMP              0 ****  ****    0 ROOT
