@<TRIPOS>MOLECULE
VWR
   25    26     1     0     0
SMALL
abcg2


@<TRIPOS>ATOM
      1 N1           1.1590    14.1680   -39.0010 nc         1 VWR      -0.444000
      2 C7          -2.4400    12.7110   -35.5720 cc         1 VWR      -0.229000
      3 N2           1.2380    14.0390   -40.3480 nc         1 VWR      -0.026000
      4 C1           0.0840    17.3520   -40.3010 c3         1 VWR       0.087600
      5 C5          -1.9430    14.6000   -36.8280 cd         1 VWR      -0.129000
      6 C6          -2.9240    13.6400   -36.4460 cd         1 VWR      -0.128000
      7 N3           0.8990    15.1200   -40.9470 nd         1 VWR      -0.211800
      8 C4          -0.7280    14.3890   -36.2410 cc         1 VWR      -0.244300
      9 C3           0.5320    15.2050   -36.3720 c3         1 VWR       0.307100
     10 C2           0.7500    15.4170   -38.7860 cd         1 VWR       0.649400
     11 N4           0.5780    16.0090   -37.5830 nu         1 VWR      -0.912100
     12 C           -1.4370    17.3970   -40.3400 c3         1 VWR      -0.115100
     13 N            0.5870    16.0210   -39.9800 na         1 VWR      -0.145700
     14 S           -0.7780    12.9960   -35.2150 ss         1 VWR       0.208000
     15 H2           0.5140    17.6180   -41.2650 h1         1 VWR       0.068700
     16 H3           0.4850    18.0430   -39.5580 h1         1 VWR       0.068700
     17 H4          -2.1330    15.4120   -37.5170 ha         1 VWR       0.122000
     18 H5          -3.9420    13.6420   -36.8090 ha         1 VWR       0.135000
     19 H6           1.4070    14.5550   -36.3520 h1         1 VWR       0.075700
     20 H7           0.6260    15.8950   -35.5320 h1         1 VWR       0.075700
     21 H8           0.0620    16.8750   -37.5670 hn         1 VWR       0.483000
     22 H9          -1.7660    18.4070   -40.5860 hc         1 VWR       0.051033
     23 H10         -1.8210    16.7110   -41.0960 hc         1 VWR       0.051033
     24 H11         -1.8620    17.1230   -39.3720 hc         1 VWR       0.051033
     25 H1          -2.9540    11.8770   -35.1210 h4         1 VWR       0.153000
@<TRIPOS>BOND
     1     1     3 1   
     2     1    10 2   
     3     2     6 2   
     4     2    14 1   
     5     2    25 1   
     6     3     7 2   
     7     4    12 1   
     8     4    13 1   
     9     4    15 1   
    10     4    16 1   
    11     5     6 1   
    12     5     8 2   
    13     5    17 1   
    14     6    18 1   
    15     7    13 1   
    16     8     9 1   
    17     8    14 1   
    18     9    11 1   
    19     9    19 1   
    20     9    20 1   
    21    10    11 1   
    22    10    13 1   
    23    11    21 1   
    24    12    22 1   
    25    12    23 1   
    26    12    24 1   
@<TRIPOS>SUBSTRUCTURE
     1 VWR         1 TEMP              0 ****  ****    0 ROOT
