@<TRIPOS>MOLECULE
VWS
   35    37     1     0     0
SMALL
bcc


@<TRIPOS>ATOM
      1 CL1          2.2990    -3.9760    -0.3930 cl         1 VWS      -0.103400
      2 C5           2.3330    -2.2530    -0.2910 ca         1 VWS       0.090400
      3 C4           2.7760    -1.5180    -1.3810 ca         1 VWS      -0.137500
      4 C3           2.7970    -0.1360    -1.3010 ca         1 VWS      -0.020500
      5 C6           1.9180    -1.6350     0.8790 ca         1 VWS      -0.137500
      6 C2           1.9400    -0.2520     0.9580 ca         1 VWS      -0.020500
      7 C1           2.3810     0.4860    -0.1320 ca         1 VWS      -0.305500
      8 S1           2.3040     2.2530    -0.0780 sy         1 VWS       1.277200
      9 O1           2.3360     2.6620     1.3130 o          1 VWS      -0.622300
     10 O2           3.2650     2.7930    -1.0250 o          1 VWS      -0.622300
     11 N1           0.8050     2.6550    -0.6760 nu         1 VWS      -0.652500
     12 C12         -0.3320     2.0860    -0.0300 ca         1 VWS       0.013600
     13 C7          -0.8230     2.7030     1.1270 ca         1 VWS      -0.098000
     14 C8          -1.9120     2.1760     1.8010 ca         1 VWS      -0.141000
     15 C11         -0.9170     0.9410    -0.5500 ca         1 VWS      -0.062000
     16 C10         -2.0270     0.4100     0.1030 ca         1 VWS      -0.069800
     17 C13         -2.8850    -0.7340    -0.0910 cc         1 VWS      -0.163400
     18 C15         -2.8010    -1.7200    -1.2250 c          1 VWS       0.946800
     19 O4          -2.0260    -1.4110    -2.1510 o          1 VWS      -0.825300
     20 O5          -3.5020    -2.7490    -1.1520 o          1 VWS      -0.825300
     21 C9          -2.4810     1.0360     1.2640 ca         1 VWS       0.049100
     22 O3          -3.5400     0.3640     1.7630 os         1 VWS      -0.207200
     23 C14         -3.7690    -0.7020     0.9420 cd         1 VWS       0.023900
     24 C16         -4.9060    -1.5620     1.3360 c3         1 VWS      -0.023900
     25 H1           3.1040    -2.0130    -2.2840 ha         1 VWS       0.149000
     26 H2           3.1430     0.4360    -2.1510 ha         1 VWS       0.153500
     27 H3           1.5770    -2.2190     1.7220 ha         1 VWS       0.149000
     28 H4           1.6130     0.2310     1.8670 ha         1 VWS       0.153500
     29 H5           0.7880     2.5810    -1.6880 hn         1 VWS       0.426800
     30 H6          -0.3480     3.6050     1.4890 ha         1 VWS       0.141000
     31 H7          -2.2970     2.6420     2.6980 ha         1 VWS       0.136000
     32 H8          -0.5240     0.4630    -1.4370 ha         1 VWS       0.172000
     33 H10         -4.7450    -1.9970     2.3250 hc         1 VWS       0.052367
     34 H11         -5.8350    -0.9890     1.3790 hc         1 VWS       0.052367
     35 H12         -5.0200    -2.3660     0.6180 hc         1 VWS       0.052367
@<TRIPOS>BOND
     1     1     2 1   
     2     2     3 ar  
     3     2     5 ar  
     4     3     4 ar  
     5     3    25 1   
     6     4     7 ar  
     7     4    26 1   
     8     5     6 ar  
     9     5    27 1   
    10     6     7 ar  
    11     6    28 1   
    12     7     8 1   
    13     8     9 2   
    14     8    10 2   
    15     8    11 1   
    16    11    12 1   
    17    11    29 1   
    18    12    13 ar  
    19    12    15 ar  
    20    13    14 ar  
    21    13    30 1   
    22    14    21 ar  
    23    14    31 1   
    24    15    16 ar  
    25    15    32 1   
    26    16    17 1   
    27    16    21 ar  
    28    17    18 1   
    29    17    23 2   
    30    18    19 1   
    31    18    20 1   
    32    21    22 1   
    33    22    23 1   
    34    23    24 1   
    35    24    33 1   
    36    24    34 1   
    37    24    35 1   
@<TRIPOS>SUBSTRUCTURE
     1 VWS         1 TEMP              0 ****  ****    0 ROOT
