@<TRIPOS>MOLECULE
VWS
   35    37     1     0     0
SMALL
No Charge or Current Charge


@<TRIPOS>ATOM
      1 Cl1          4.5020    -3.2150     1.5970 cl         1 VWS      -0.195000
      2 C5           3.8650    -1.7000     0.9680 ca         1 VWS       0.182000
      3 C4           3.5400    -1.5900    -0.3930 ca         1 VWS      -0.119500
      4 C3           3.0300    -0.3830    -0.9000 ca         1 VWS      -0.002500
      5 C6           3.6840    -0.6060     1.8280 ca         1 VWS      -0.119500
      6 C2           3.1750     0.6050     1.3290 ca         1 VWS      -0.002500
      7 C1           2.8450     0.7180    -0.0380 ca         1 VWS      -0.305500
      8 S1           2.1770     2.2540    -0.6920 sy         1 VWS       1.135600
      9 O1           2.1200     3.2840     0.3490 o          1 VWS      -0.551500
     10 O2           2.7480     2.5100    -2.0160 o          1 VWS      -0.551500
     11 N1           0.5690     1.9180    -1.0610 nu         1 VWS      -0.846100
     12 C12         -0.4520     1.3530    -0.2870 ca         1 VWS       0.152000
     13 C7          -0.3700     1.2830     1.1320 ca         1 VWS      -0.080000
     14 C8          -1.4100     0.7030     1.8890 ca         1 VWS      -0.123000
     15 C11         -1.5960     0.8420    -0.9460 ca         1 VWS      -0.044000
     16 C10         -2.6200     0.2690    -0.1740 ca         1 VWS      -0.069800
     17 C13         -3.8980    -0.3360    -0.5420 cc         1 VWS      -0.163400
     18 C15         -4.4890    -0.5180    -1.8980 c          1 VWS       0.736200
     19 O4          -3.8620    -0.1250    -2.8710 o          1 VWS      -0.720000
     20 O5          -5.5830    -1.0530    -2.0050 o          1 VWS      -0.720000
     21 C9          -2.5150     0.2070     1.1950 ca         1 VWS       0.049100
     22 O3          -3.6230    -0.3860     1.7100 os         1 VWS      -0.207200
     23 C14         -4.4620    -0.7170     0.6750 cd         1 VWS       0.023900
     24 C16         -5.7670    -1.3940     1.0070 c3         1 VWS      -0.023900
     25 H1           3.6820    -2.4410    -1.0550 ha         1 VWS       0.131000
     26 H2           2.7770    -0.3070    -1.9560 ha         1 VWS       0.135500
     27 H3           3.9380    -0.6970     2.8800 ha         1 VWS       0.131000
     28 H4           3.0400     1.4470     2.0070 ha         1 VWS       0.135500
     29 H5           0.5080     1.8590    -2.0690 hn         1 VWS       0.482000
     30 H6           0.4920     1.6810     1.6560 ha         1 VWS       0.123000
     31 H7          -1.3550     0.6450     2.9740 ha         1 VWS       0.118000
     32 H8          -1.6760     0.8920    -2.0270 ha         1 VWS       0.154000
     33 H10         -5.8310    -2.3800     0.5320 hc         1 VWS       0.052367
     34 H11         -5.8780    -1.5390     2.0880 hc         1 VWS       0.052367
     35 H12         -6.6180    -0.7950     0.6630 hc         1 VWS       0.052367
@<TRIPOS>BOND
     1     1     2 1   
     2     2     3 ar  
     3     2     5 ar  
     4     3     4 ar  
     5     3    25 1   
     6     4     7 ar  
     7     4    26 1   
     8     5     6 ar  
     9     5    27 1   
    10     6     7 ar  
    11     6    28 1   
    12     7     8 1   
    13     8     9 2   
    14     8    10 2   
    15     8    11 1   
    16    11    12 1   
    17    11    29 1   
    18    12    13 ar  
    19    12    15 ar  
    20    13    14 ar  
    21    13    30 1   
    22    14    21 ar  
    23    14    31 1   
    24    15    16 ar  
    25    15    32 1   
    26    16    17 1   
    27    16    21 ar  
    28    17    18 1   
    29    17    23 2   
    30    18    19 1   
    31    18    20 1   
    32    21    22 1   
    33    22    23 1   
    34    23    24 1   
    35    24    33 1   
    36    24    34 1   
    37    24    35 1   
@<TRIPOS>SUBSTRUCTURE
     1 VWS         1 TEMP              0 ****  ****    0 ROOT
