@<TRIPOS>MOLECULE
VWT
   16    16     1     0     0
SMALL
abcg2


@<TRIPOS>ATOM
      1 C1         -49.6260    52.5380   -38.5070 ca         1 VWT      -0.033000
      2 C3         -49.6860    54.6820   -37.4070 ca         1 VWT      -0.033000
      3 C4         -50.5780    54.1810   -36.4720 ca         1 VWT      -0.107500
      4 C5         -50.9880    52.8530   -36.5570 ca         1 VWT      -0.032000
      5 C6         -51.9010    52.3300   -35.5920 cg         1 VWT       0.352000
      6 N          -52.6370    51.9090   -34.8120 n1         1 VWT      -0.516000
      7 C          -50.5140    52.0290   -37.5800 ca         1 VWT      -0.107500
      8 O          -47.8960    55.9140   -39.3620 o          1 VWT      -0.689200
      9 C2         -49.2100    53.8630   -38.4200 ca         1 VWT      -0.191500
     10 O1         -46.7850    53.7150   -39.2910 o          1 VWT      -0.689200
     11 O2         -48.5750    54.1340   -40.9250 o          1 VWT      -0.689200
     12 S          -48.0060    54.4690   -39.6110 s6         1 VWT       1.262100
     13 H1         -49.2640    51.8970   -39.3000 ha         1 VWT       0.134000
     14 H2         -49.3680    55.7130   -37.3390 ha         1 VWT       0.134000
     15 H3         -50.9500    54.8160   -35.6790 ha         1 VWT       0.104000
     16 H4         -50.8380    50.9990   -37.6440 ha         1 VWT       0.104000
@<TRIPOS>BOND
     1     1     7 ar  
     2     1     9 ar  
     3     1    13 1   
     4     2     3 ar  
     5     2     9 ar  
     6     2    14 1   
     7     3     4 ar  
     8     3    15 1   
     9     4     5 1   
    10     4     7 ar  
    11     5     6 3   
    12     7    16 1   
    13     8    12 1   
    14     9    12 1   
    15    10    12 1   
    16    11    12 1   
@<TRIPOS>SUBSTRUCTURE
     1 VWT         1 TEMP              0 ****  ****    0 ROOT
