@<TRIPOS>MOLECULE
VWT
   16    16     1     0     0
SMALL
No Charge or Current Charge


@<TRIPOS>ATOM
      1 C1         -49.6860    52.5430   -38.5650 ca         1 VWT      -0.033000
      2 C3         -49.5880    54.6480   -37.3470 ca         1 VWT      -0.033000
      3 C4         -50.5030    54.1450   -36.4050 ca         1 VWT      -0.107500
      4 C5         -51.0150    52.8400   -36.5390 ca         1 VWT      -0.032000
      5 C6         -51.9510    52.3260   -35.5750 cg         1 VWT       0.352000
      6 N          -52.7070    51.9130   -34.7840 n1         1 VWT      -0.516000
      7 C          -50.6020    52.0420   -37.6220 ca         1 VWT      -0.107500
      8 O          -48.2390    55.9560   -39.6510 o          1 VWT      -0.689200
      9 C2         -49.1760    53.8530   -38.4390 ca         1 VWT      -0.191500
     10 O1         -46.6840    54.1010   -39.0680 o          1 VWT      -0.689200
     11 O2         -48.3410    53.7940   -40.9020 o          1 VWT      -0.689200
     12 S          -47.9590    54.5120   -39.6760 s6         1 VWT       1.262100
     13 H1         -49.3740    51.9100   -39.3920 ha         1 VWT       0.134000
     14 H2         -49.1980    55.6570   -37.2250 ha         1 VWT       0.134000
     15 H3         -50.8110    54.7720   -35.5710 ha         1 VWT       0.104000
     16 H4         -50.9860    51.0300   -37.7360 ha         1 VWT       0.104000
@<TRIPOS>BOND
     1     1     7 ar  
     2     1     9 ar  
     3     1    13 1   
     4     2     3 ar  
     5     2     9 ar  
     6     2    14 1   
     7     3     4 ar  
     8     3    15 1   
     9     4     5 1   
    10     4     7 ar  
    11     5     6 3   
    12     7    16 1   
    13     8    12 1   
    14     9    12 1   
    15    10    12 1   
    16    11    12 1   
@<TRIPOS>SUBSTRUCTURE
     1 VWT         1 TEMP              0 ****  ****    0 ROOT
