@<TRIPOS>MOLECULE
VWU
   37    38     1     0     0
SMALL
No Charge or Current Charge


@<TRIPOS>ATOM
      1 C1          48.5420     7.0060    26.7000 cg         1 VWU       0.319000
      2 C2          47.9940     7.6600    25.5430 ca         1 VWU       0.019000
      3 C3          47.1030     8.7420    25.6940 ca         1 VWU      -0.093000
      4 C4          46.5710     9.3780    24.5610 ca         1 VWU       0.142000
      5 C5          46.9160     8.9390    23.2740 ca         1 VWU      -0.144000
      6 C6          47.7940     7.8500    23.1200 ca         1 VWU       0.134100
      7 C8          45.9040     6.8260    21.1400 ca         1 VWU      -0.137000
      8 O1          48.1480     7.4010    21.8690 os         1 VWU      -0.236200
      9 O2          45.9550     3.3770    20.1550 o          1 VWU      -0.590100
     10 N2          44.2010     3.9950    21.4820 ns         1 VWU      -0.490900
     11 N1          48.9900     6.4840    27.6430 n1         1 VWU      -0.436000
     12 C7          47.2330     7.2030    20.8540 ca         1 VWU       0.105100
     13 C11         43.3740     4.6350    20.4500 c3         1 VWU       0.099000
     14 C12         45.4460     3.4380    21.2670 c          1 VWU       0.593100
     15 C13         46.1400     2.9020    22.5250 c3         1 VWU       0.030600
     16 C14         45.4070     6.7410    18.7610 ca         1 VWU      -0.095000
     17 C15         46.7320     7.1120    18.4700 ca         1 VWU      -0.080000
     18 C16         47.6460     7.3370    19.5130 ca         1 VWU       0.117000
     19 C17         48.3420     7.2220    24.2500 ca         1 VWU      -0.091000
     20 C9          44.9880     6.5940    20.0960 ca         1 VWU      -0.058300
     21 Cl1         45.4660    10.7320    24.7530 cl         1 VWU      -0.191000
     22 Cl2         46.5470     4.2060    23.7420 cl         1 VWU      -0.274000
     23 Cl3         49.3050     7.7910    19.1220 cl         1 VWU      -0.176000
     24 H1          46.8250     9.0920    26.6850 ha         1 VWU       0.145000
     25 H2          46.5040     9.4400    22.4030 ha         1 VWU       0.147000
     26 H3          45.5830     6.6940    22.1700 ha         1 VWU       0.128000
     27 H4          43.8700     4.0070    22.4400 hn         1 VWU       0.319500
     28 H5          42.8720     6.5810    19.6610 hc         1 VWU       0.057200
     29 H6          43.2410     6.5880    21.3720 hc         1 VWU       0.057200
     30 H7          42.3200     4.4050    20.6570 h1         1 VWU       0.068200
     31 H8          43.6180     4.2110    19.4660 h1         1 VWU       0.068200
     32 H9          45.4780     2.1760    23.0110 h1         1 VWU       0.097200
     33 H10         47.0720     2.4040    22.2310 h1         1 VWU       0.097200
     34 H11         44.7090     6.5610    17.9460 ha         1 VWU       0.122000
     35 H12         47.0520     7.2190    17.4370 ha         1 VWU       0.136000
     36 H13         49.0260     6.3870    24.1180 ha         1 VWU       0.149000
     37 C10         43.5590     6.1670    20.4100 c3         1 VWU      -0.059100
@<TRIPOS>BOND
     1     1     2 1   
     2     1    11 3   
     3     2     3 ar  
     4     2    19 ar  
     5     3     4 ar  
     6     3    24 1   
     7     4     5 ar  
     8     4    21 1   
     9     5     6 ar  
    10     5    25 1   
    11     6     8 1   
    12     6    19 ar  
    13     7    12 ar  
    14     7    20 ar  
    15     7    26 1   
    16     8    12 1   
    17     9    14 2   
    18    10    13 1   
    19    10    14 1   
    20    10    27 1   
    21    12    18 ar  
    22    13    30 1   
    23    13    31 1   
    24    13    37 1   
    25    14    15 1   
    26    15    22 1   
    27    15    32 1   
    28    15    33 1   
    29    16    17 ar  
    30    16    20 ar  
    31    16    34 1   
    32    17    18 ar  
    33    17    35 1   
    34    18    23 1   
    35    19    36 1   
    36    20    37 1   
    37    28    37 1   
    38    29    37 1   
@<TRIPOS>SUBSTRUCTURE
     1 VWU         1 TEMP              0 ****  ****    0 ROOT
