@<TRIPOS>MOLECULE
VWU
   37    38     1     0     0
SMALL
abcg2


@<TRIPOS>ATOM
      1 C1          48.6090     7.2850    26.8040 cg         1 VWU       0.319000
      2 C2          48.0610     7.7890    25.5860 ca         1 VWU       0.019000
      3 C3          47.3320     8.9830    25.6140 ca         1 VWU      -0.093000
      4 C4          46.8090     9.4470    24.4190 ca         1 VWU       0.142000
      5 C5          46.9890     8.7700    23.2210 ca         1 VWU      -0.144000
      6 C6          47.7120     7.5820    23.2270 ca         1 VWU       0.134100
      7 C8          45.7390     6.6270    21.2190 ca         1 VWU      -0.137000
      8 O1          47.9690     6.8750    22.0830 os         1 VWU      -0.236200
      9 O2          45.8500     3.2400    19.9960 o          1 VWU      -0.590100
     10 N2          44.1850     3.9640    21.3720 ns         1 VWU      -0.490900
     11 N1          49.0470     6.8780    27.7900 n1         1 VWU      -0.436000
     12 C7          47.0780     6.9400    21.0320 ca         1 VWU       0.105100
     13 C11         43.3420     4.5740    20.3570 c3         1 VWU       0.099000
     14 C12         45.3960     3.4520    21.1170 c          1 VWU       0.593100
     15 C13         46.2640     3.0480    22.3040 c3         1 VWU       0.030600
     16 C14         45.3430     6.8920    18.8750 ca         1 VWU      -0.095000
     17 C15         46.6750     7.2250    18.6780 ca         1 VWU      -0.080000
     18 C16         47.5490     7.2460    19.7600 ca         1 VWU       0.117000
     19 C17         48.2540     7.0790    24.4010 ca         1 VWU      -0.091000
     20 C9          44.8550     6.5860    20.1460 ca         1 VWU      -0.058300
     21 CL1         45.8880    10.9280    24.4170 cl         1 VWU      -0.191000
     22 CL2         45.9650     3.9260    23.8380 cl         1 VWU      -0.274000
     23 CL3         49.2260     7.6570    19.5280 cl         1 VWU      -0.176000
     24 H1          47.1930     9.5240    26.5380 ha         1 VWU       0.145000
     25 H2          46.5710     9.1630    22.3060 ha         1 VWU       0.147000
     26 H3          45.3960     6.4030    22.2190 ha         1 VWU       0.128000
     27 H4          43.9660     4.1670    22.3390 hn         1 VWU       0.319500
     28 H5          42.7950     6.4950    19.5690 hc         1 VWU       0.057200
     29 H6          43.0570     6.4840    21.3100 hc         1 VWU       0.057200
     30 H7          42.3080     4.2760    20.5380 h1         1 VWU       0.068200
     31 H8          43.6510     4.1700    19.3950 h1         1 VWU       0.068200
     32 H9          46.1360     1.9870    22.5020 h1         1 VWU       0.097200
     33 H10         47.2970     3.2330    22.0320 h1         1 VWU       0.097200
     34 H11         44.6760     6.8710    18.0210 ha         1 VWU       0.122000
     35 H12         47.0420     7.4710    17.6920 ha         1 VWU       0.136000
     36 H13         48.8060     6.1510    24.3900 ha         1 VWU       0.149000
     37 C10         43.4440     6.1130    20.3580 c3         1 VWU      -0.059100
@<TRIPOS>BOND
     1     1     2 1   
     2     1    11 3   
     3     2     3 ar  
     4     2    19 ar  
     5     3     4 ar  
     6     3    24 1   
     7     4     5 ar  
     8     4    21 1   
     9     5     6 ar  
    10     5    25 1   
    11     6     8 1   
    12     6    19 ar  
    13     7    12 ar  
    14     7    20 ar  
    15     7    26 1   
    16     8    12 1   
    17     9    14 2   
    18    10    13 1   
    19    10    14 1   
    20    10    27 1   
    21    12    18 ar  
    22    13    30 1   
    23    13    31 1   
    24    13    37 1   
    25    14    15 1   
    26    15    22 1   
    27    15    32 1   
    28    15    33 1   
    29    16    17 ar  
    30    16    20 ar  
    31    16    34 1   
    32    17    18 ar  
    33    17    35 1   
    34    18    23 1   
    35    19    36 1   
    36    20    37 1   
    37    28    37 1   
    38    29    37 1   
@<TRIPOS>SUBSTRUCTURE
     1 VWU         1 TEMP              0 ****  ****    0 ROOT
