@<TRIPOS>MOLECULE
VWV
   29    29     1     0     0
SMALL
No Charge or Current Charge


@<TRIPOS>ATOM
      1 N1           1.6570    16.7730   -84.8930 n3         1 VWV      -0.723600
      2 C4           2.6480    15.6660   -84.6520 c3         1 VWV       0.114800
      3 C5           0.5300    16.3190   -85.7480 c6         1 VWV       0.186300
      4 C6          -0.3050    17.5040   -86.2410 c6         1 VWV      -0.299400
      5 C7           0.4320    18.7000   -83.8980 c6         1 VWV      -0.299400
      6 C8           1.1970    17.4020   -83.6260 c6         1 VWV       0.186300
      7 C1           6.2330    13.7090   -82.1430 c3         1 VWV      -0.098100
      8 C2           5.8380    15.0770   -82.7220 c3         1 VWV       0.169600
      9 O1           4.5730    14.9140   -83.3850 os         1 VWV      -0.458100
     10 C3           4.0110    16.0150   -83.9850 c          1 VWV       0.588100
     11 O2           4.5270    17.1280   -83.9910 o          1 VWV      -0.466000
     12 S1          -1.0430    18.3960   -84.8720 s6         1 VWV       1.082000
     13 O3          -1.9290    17.4890   -84.1300 o          1 VWV      -0.519500
     14 O4          -1.5600    19.6800   -85.3650 o          1 VWV      -0.519500
     15 H7           2.1870    14.8870   -84.0300 h1         1 VWV       0.067200
     16 H6           2.9100    15.1840   -85.6030 h1         1 VWV       0.067200
     17 H9          -0.1100    15.6050   -85.2060 h1         1 VWV       0.056450
     18 H8           0.9170    15.7880   -86.6310 h1         1 VWV       0.056450
     19 H11         -1.1330    17.1760   -86.8780 h1         1 VWV       0.113200
     20 H10          0.3180    18.2260   -86.7810 h1         1 VWV       0.113200
     21 H12          1.0440    19.4040   -84.4740 h1         1 VWV       0.113200
     22 H13          0.0960    19.1730   -82.9680 h1         1 VWV       0.113200
     23 H14          0.5670    16.7060   -83.0500 h1         1 VWV       0.056450
     24 H15          2.0570    17.6490   -82.9860 h1         1 VWV       0.056450
     25 H1           7.1970    13.7810   -81.6240 hc         1 VWV       0.047700
     26 H2           5.4810    13.3620   -81.4250 hc         1 VWV       0.047700
     27 H3           6.3270    12.9640   -82.9420 hc         1 VWV       0.047700
     28 H5           5.7640    15.8110   -81.9090 h1         1 VWV       0.049200
     29 H4           6.6110    15.4130   -83.4270 h1         1 VWV       0.049200
@<TRIPOS>BOND
     1     1     2 1   
     2     1     3 1   
     3     1     6 1   
     4     2    10 1   
     5     2    15 1   
     6     2    16 1   
     7     3     4 1   
     8     3    17 1   
     9     3    18 1   
    10     4    12 1   
    11     4    19 1   
    12     4    20 1   
    13     5     6 1   
    14     5    12 1   
    15     5    21 1   
    16     5    22 1   
    17     6    23 1   
    18     6    24 1   
    19     7     8 1   
    20     7    25 1   
    21     7    26 1   
    22     7    27 1   
    23     8     9 1   
    24     8    28 1   
    25     8    29 1   
    26     9    10 1   
    27    10    11 2   
    28    12    13 2   
    29    12    14 2   
@<TRIPOS>SUBSTRUCTURE
     1 VWV         1 TEMP              0 ****  ****    0 ROOT
