@<TRIPOS>MOLECULE
VWV
   29    29     1     0     0
SMALL
abcg2


@<TRIPOS>ATOM
      1 N1           1.6030    16.6490   -84.6890 n3         1 VWV      -0.723600
      2 C4           2.4340    15.5300   -84.3220 c3         1 VWV       0.114800
      3 C5           0.5930    16.2810   -85.6650 c6         1 VWV       0.186300
      4 C6          -0.0490    17.5100   -86.2930 c6         1 VWV      -0.299400
      5 C7           0.4590    18.6670   -83.8660 c6         1 VWV      -0.299400
      6 C8           1.0400    17.3040   -83.5210 c6         1 VWV       0.186300
      7 C1           6.3390    13.8210   -82.3840 c3         1 VWV      -0.098100
      8 C2           5.7980    15.1480   -82.8560 c3         1 VWV       0.169600
      9 O1           4.4540    14.9340   -83.3190 os         1 VWV      -0.458100
     10 C3           3.7900    15.9680   -83.8110 c          1 VWV       0.588100
     11 O2           4.2250    17.0890   -83.8640 o          1 VWV      -0.466000
     12 S1          -0.8680    18.4920   -85.0470 s6         1 VWV       1.082000
     13 O3          -1.9250    17.6800   -84.4390 o          1 VWV      -0.519500
     14 O4          -1.2320    19.7990   -85.5920 o          1 VWV      -0.519500
     15 H7           1.9670    14.8590   -83.5850 h1         1 VWV       0.067200
     16 H6           2.6210    14.9130   -85.2060 h1         1 VWV       0.067200
     17 H9          -0.1880    15.6300   -85.2470 h1         1 VWV       0.056450
     18 H8           1.0700    15.7230   -86.4720 h1         1 VWV       0.056450
     19 H11         -0.8070    17.2330   -87.0280 h1         1 VWV       0.113200
     20 H10          0.6960    18.1490   -86.7700 h1         1 VWV       0.113200
     21 H12          1.2120    19.3140   -84.3160 h1         1 VWV       0.113200
     22 H13          0.0380    19.1590   -82.9870 h1         1 VWV       0.113200
     23 H14          0.2770    16.6850   -83.0270 h1         1 VWV       0.056450
     24 H15          1.8260    17.4740   -82.7860 h1         1 VWV       0.056450
     25 H1           7.3600    13.9570   -82.0300 hc         1 VWV       0.047700
     26 H2           5.7510    13.4190   -81.5590 hc         1 VWV       0.047700
     27 H3           6.3590    13.0860   -83.1880 hc         1 VWV       0.047700
     28 H5           5.7940    15.8780   -82.0450 h1         1 VWV       0.049200
     29 H4           6.4060    15.5500   -83.6690 h1         1 VWV       0.049200
@<TRIPOS>BOND
     1     1     2 1   
     2     1     3 1   
     3     1     6 1   
     4     2    10 1   
     5     2    15 1   
     6     2    16 1   
     7     3     4 1   
     8     3    17 1   
     9     3    18 1   
    10     4    12 1   
    11     4    19 1   
    12     4    20 1   
    13     5     6 1   
    14     5    12 1   
    15     5    21 1   
    16     5    22 1   
    17     6    23 1   
    18     6    24 1   
    19     7     8 1   
    20     7    25 1   
    21     7    26 1   
    22     7    27 1   
    23     8     9 1   
    24     8    28 1   
    25     8    29 1   
    26     9    10 1   
    27    10    11 2   
    28    12    13 2   
    29    12    14 2   
@<TRIPOS>SUBSTRUCTURE
     1 VWV         1 TEMP              0 ****  ****    0 ROOT
