@<TRIPOS>MOLECULE
VWW
   58    59     1     0     0
SMALL
No Charge or Current Charge


@<TRIPOS>ATOM
      1 N           14.2530    11.5350    24.4800 n8         1 VWW      -0.861800
      2 CA          14.6550    10.1590    24.9510 c3         1 VWW       0.018500
      3 C           15.7370     9.3870    24.0670 c          1 VWW       0.925600
      4 O           16.9010     9.3680    24.4560 o          1 VWW      -0.837800
      5 CB          13.3810     9.3060    25.2090 c3         1 VWW      -0.037400
      6 CG          13.6550     7.9620    25.9290 c3         1 VWW      -0.150400
      7 CD          12.3550     7.2160    26.2370 c          1 VWW       0.682100
      8 OE1         11.7070     6.6400    25.3740 o          1 VWW      -0.637100
      9 OXT         15.3950     8.8740    23.0040 o          1 VWW      -0.837800
     10 N1          11.9770     7.2230    27.5600 ns         1 VWW      -0.561900
     11 CA1         10.7930     6.5200    28.1200 c3         1 VWW       0.031700
     12 CB1         11.2240     5.2440    28.8860 c3         1 VWW      -0.003300
     13 SG          11.9610     3.9390    27.7890 ss         1 VWW      -0.337200
     14 CD1         10.5310     3.5370    26.6750 c3         1 VWW       0.054000
     15 CE           9.2180     3.4110    27.4390 ca         1 VWW      -0.079300
     16 CZ1          8.1210     4.2270    27.1010 ca         1 VWW      -0.123000
     17 CZ2          9.0930     2.4900    28.4990 ca         1 VWW      -0.123000
     18 CT1          6.9180     4.1330    27.8210 ca         1 VWW      -0.130500
     19 CT2          7.8920     2.4010    29.2240 ca         1 VWW      -0.130500
     20 CH           6.8050     3.2250    28.8870 ca         1 VWW      -0.134000
     21 C1           9.9730     7.4490    29.0620 c          1 VWW       0.662100
     22 O1          10.4150     8.4920    29.5310 o          1 VWW      -0.614100
     23 N2           8.6970     7.0100    29.3510 ns         1 VWW      -0.528900
     24 CA2          7.7520     7.7200    30.2520 c3         1 VWW      -0.009000
     25 CB2          6.5560     6.8300    30.5910 ca         1 VWW      -0.028300
     26 CG1          5.4900     6.6650    29.6830 ca         1 VWW      -0.117000
     27 CD11         4.4010     5.8360    30.0060 ca         1 VWW      -0.149500
     28 CE1          4.3710     5.1600    31.2360 ca         1 VWW      -0.159000
     29 CD2          5.4330     5.3110    32.1430 ca         1 VWW      -0.149500
     30 CG2          6.5210     6.1420    31.8210 ca         1 VWW      -0.117000
     31 C2           7.3130     9.1330    29.7170 c          1 VWW       0.933600
     32 O2           7.1170    10.0280    30.5340 o          1 VWW      -0.816300
     33 OXT1         7.1570     9.3010    28.5100 o          1 VWW      -0.816300
     34 H           13.6350    11.9660    25.1750 hn         1 VWW       0.305800
     35 H2          15.0800    12.1400    24.4560 hn         1 VWW       0.305800
     36 HA          15.1220    10.3220    25.9320 h1         1 VWW      -0.000300
     37 HB2         12.6800     9.8890    25.8210 hc         1 VWW       0.038200
     38 HB3         12.8740     9.1090    24.2560 hc         1 VWW       0.038200
     39 HG2         14.2670     7.3270    25.2790 hc         1 VWW       0.072700
     40 HG3         14.1940     8.1690    26.8610 hc         1 VWW       0.072700
     41 H1          12.5600     7.7580    28.1930 hn         1 VWW       0.328500
     42 HA1         10.1160     6.2420    27.3030 h1         1 VWW       0.083700
     43 HB21        11.9630     5.5150    29.6500 h1         1 VWW       0.074700
     44 HB31        10.3600     4.8140    29.4080 h1         1 VWW       0.074700
     45 HD2         10.4470     4.3230    25.9140 h1         1 VWW       0.083700
     46 HD3         10.7440     2.5950    26.1530 h1         1 VWW       0.083700
     47 HZ1          8.1980     4.9360    26.2790 ha         1 VWW       0.136500
     48 HZ2          9.9330     1.8520    28.7680 ha         1 VWW       0.136500
     49 HT1          6.0730     4.7640    27.5530 ha         1 VWW       0.129000
     50 HT2          7.8040     1.6950    30.0470 ha         1 VWW       0.129000
     51 HH           5.8760     3.1580    29.4480 ha         1 VWW       0.122000
     52 H3           8.3960     6.1430    28.9210 hn         1 VWW       0.297500
     53 HA2          8.2940     7.9210    31.1850 h1         1 VWW       0.065700
     54 HG1          5.5040     7.1730    28.7210 ha         1 VWW       0.142000
     55 HD1          3.5820     5.7150    29.2990 ha         1 VWW       0.108500
     56 HE           3.5300     4.5170    31.4850 ha         1 VWW       0.103000
     57 HD21         5.4140     4.7840    33.0950 ha         1 VWW       0.108500
     58 HG21         7.3410     6.2480    32.5290 ha         1 VWW       0.142000
@<TRIPOS>BOND
     1     1     2 1   
     2     1    34 1   
     3     1    35 1   
     4     2     3 1   
     5     2     5 1   
     6     2    36 1   
     7     3     4 1   
     8     3     9 1   
     9     5     6 1   
    10     5    37 1   
    11     5    38 1   
    12     6     7 1   
    13     6    39 1   
    14     6    40 1   
    15     7     8 2   
    16     7    10 1   
    17    10    11 1   
    18    10    41 1   
    19    11    12 1   
    20    11    21 1   
    21    11    42 1   
    22    12    13 1   
    23    12    43 1   
    24    12    44 1   
    25    13    14 1   
    26    14    15 1   
    27    14    45 1   
    28    14    46 1   
    29    15    16 ar  
    30    15    17 ar  
    31    16    18 ar  
    32    16    47 1   
    33    17    19 ar  
    34    17    48 1   
    35    18    20 ar  
    36    18    49 1   
    37    19    20 ar  
    38    19    50 1   
    39    20    51 1   
    40    21    22 2   
    41    21    23 1   
    42    23    24 1   
    43    23    52 1   
    44    24    25 1   
    45    24    31 1   
    46    24    53 1   
    47    25    26 ar  
    48    25    30 ar  
    49    26    27 ar  
    50    26    54 1   
    51    27    28 ar  
    52    27    55 1   
    53    28    29 ar  
    54    28    56 1   
    55    29    30 ar  
    56    29    57 1   
    57    30    58 1   
    58    31    32 1   
    59    31    33 1   
@<TRIPOS>SUBSTRUCTURE
     1 VWW         1 TEMP              0 ****  ****    0 ROOT
