@<TRIPOS>MOLECULE
VWW
   58    59     1     0     0
SMALL
bcc


@<TRIPOS>ATOM
      1 N           14.5670    10.4280    23.1900 n8         1 VWW      -0.861800
      2 CA          14.6380     9.9700    24.5730 c3         1 VWW       0.018500
      3 C           15.9600     9.2160    24.8590 c          1 VWW       0.925600
      4 O           16.3710     9.2740    26.0380 o          1 VWW      -0.837800
      5 CB          13.4300     9.0600    24.8220 c3         1 VWW      -0.037400
      6 CG          13.2540     8.6410    26.2720 c3         1 VWW      -0.150400
      7 CD          11.9890     7.8470    26.5260 c          1 VWW       0.682100
      8 OE1         11.2140     7.5160    25.6420 o          1 VWW      -0.637100
      9 OXT         16.4910     8.6010    23.9160 o          1 VWW      -0.837800
     10 N1          11.7940     7.5330    27.8250 ns         1 VWW      -0.561900
     11 CA1         10.6890     6.7590    28.3080 c3         1 VWW       0.031700
     12 CB1         11.1290     5.3740    28.8000 c3         1 VWW      -0.003300
     13 SG          11.8000     4.3090    27.5050 ss         1 VWW      -0.337200
     14 CD1         10.3100     3.9940    26.5010 c3         1 VWW       0.054000
     15 CE           9.1620     3.4500    27.2970 ca         1 VWW      -0.079300
     16 CZ1          8.0010     4.1990    27.4630 ca         1 VWW      -0.123000
     17 CZ2          9.2430     2.1980    27.9070 ca         1 VWW      -0.123000
     18 CT1          6.9450     3.7190    28.2290 ca         1 VWW      -0.130500
     19 CT2          8.1890     1.7120    28.6640 ca         1 VWW      -0.130500
     20 CH           7.0370     2.4740    28.8330 ca         1 VWW      -0.134000
     21 C1          10.0000     7.4830    29.4670 c          1 VWW       0.662100
     22 O1          10.6310     8.1890    30.2400 o          1 VWW      -0.614100
     23 N2           8.6990     7.2050    29.5940 ns         1 VWW      -0.528900
     24 CA2          7.8640     7.7820    30.6270 c3         1 VWW      -0.009000
     25 CB2          6.6270     6.9260    30.7630 ca         1 VWW      -0.028300
     26 CG1          5.5930     7.0210    29.8320 ca         1 VWW      -0.117000
     27 CD11         4.4750     6.2050    29.9280 ca         1 VWW      -0.149500
     28 CE1          4.3740     5.2760    30.9560 ca         1 VWW      -0.159000
     29 CD2          5.4000     5.1700    31.8850 ca         1 VWW      -0.149500
     30 CG2          6.5180     5.9890    31.7860 ca         1 VWW      -0.117000
     31 C2           7.4790     9.2700    30.3660 c          1 VWW       0.933600
     32 O2           6.9690     9.8400    31.3460 o          1 VWW      -0.816300
     33 OXT1         7.6840     9.7260    29.2300 o          1 VWW      -0.816300
     34 H           13.7790    11.0580    23.0950 hn         1 VWW       0.305800
     35 H2          15.3860    10.9810    22.9710 hn         1 VWW       0.305800
     36 HA          14.5800    10.8030    25.2920 h1         1 VWW      -0.000300
     37 HB2         12.5310     9.5930    24.4940 hc         1 VWW       0.038200
     38 HB3         13.5140     8.1800    24.1800 hc         1 VWW       0.038200
     39 HG2         14.1020     8.0400    26.6080 hc         1 VWW       0.072700
     40 HG3         13.2490     9.5220    26.9220 hc         1 VWW       0.072700
     41 H1          12.4670     7.8500    28.5060 hn         1 VWW       0.328500
     42 HA1          9.9830     6.6440    27.4860 h1         1 VWW       0.083700
     43 HB21        11.9260     5.4810    29.5390 h1         1 VWW       0.074700
     44 HB31        10.3000     4.8630    29.2950 h1         1 VWW       0.074700
     45 HD2         10.0240     4.9050    25.9750 h1         1 VWW       0.083700
     46 HD3         10.6430     3.2790    25.7460 h1         1 VWW       0.083700
     47 HZ1          7.9180     5.1690    26.9840 ha         1 VWW       0.136500
     48 HZ2         10.1410     1.6030    27.7910 ha         1 VWW       0.136500
     49 HT1          6.0560     4.3220    28.3570 ha         1 VWW       0.129000
     50 HT2          8.2650     0.7370    29.1280 ha         1 VWW       0.129000
     51 HH           6.2180     2.0980    29.4330 ha         1 VWW       0.122000
     52 H3           8.2400     6.6960    28.8560 hn         1 VWW       0.297500
     53 HA2          8.4170     7.7410    31.5680 h1         1 VWW       0.065700
     54 HG1          5.6600     7.7420    29.0250 ha         1 VWW       0.142000
     55 HD1          3.6810     6.2960    29.1980 ha         1 VWW       0.108500
     56 HE           3.5010     4.6410    31.0320 ha         1 VWW       0.103000
     57 HD21         5.3310     4.4490    32.6900 ha         1 VWW       0.108500
     58 HG21         7.3140     5.8970    32.5140 ha         1 VWW       0.142000
@<TRIPOS>BOND
     1     1     2 1   
     2     1    34 1   
     3     1    35 1   
     4     2     3 1   
     5     2     5 1   
     6     2    36 1   
     7     3     4 1   
     8     3     9 1   
     9     5     6 1   
    10     5    37 1   
    11     5    38 1   
    12     6     7 1   
    13     6    39 1   
    14     6    40 1   
    15     7     8 2   
    16     7    10 1   
    17    10    11 1   
    18    10    41 1   
    19    11    12 1   
    20    11    21 1   
    21    11    42 1   
    22    12    13 1   
    23    12    43 1   
    24    12    44 1   
    25    13    14 1   
    26    14    15 1   
    27    14    45 1   
    28    14    46 1   
    29    15    16 ar  
    30    15    17 ar  
    31    16    18 ar  
    32    16    47 1   
    33    17    19 ar  
    34    17    48 1   
    35    18    20 ar  
    36    18    49 1   
    37    19    20 ar  
    38    19    50 1   
    39    20    51 1   
    40    21    22 2   
    41    21    23 1   
    42    23    24 1   
    43    23    52 1   
    44    24    25 1   
    45    24    31 1   
    46    24    53 1   
    47    25    26 ar  
    48    25    30 ar  
    49    26    27 ar  
    50    26    54 1   
    51    27    28 ar  
    52    27    55 1   
    53    28    29 ar  
    54    28    56 1   
    55    29    30 ar  
    56    29    57 1   
    57    30    58 1   
    58    31    32 1   
    59    31    33 1   
@<TRIPOS>SUBSTRUCTURE
     1 VWW         1 TEMP              0 ****  ****    0 ROOT
