@<TRIPOS>MOLECULE
VWY
   30    30     1     0     0
SMALL
No Charge or Current Charge


@<TRIPOS>ATOM
      1 N1           2.5830    35.0540   -57.0500 ns         1 VWY      -0.501900
      2 C4           1.2920    36.3120   -58.7330 ca         1 VWY      -0.159600
      3 C5           1.0360    36.6180   -60.0880 ca         1 VWY      -0.052500
      4 C6           0.0370    37.5430   -60.4400 ca         1 VWY      -0.144000
      5 C7          -0.7320    38.1800   -59.4560 ca         1 VWY       0.274000
      6 C8          -3.9550    38.1230   -58.6530 c3         1 VWY      -0.381100
      7 C10          0.5180    36.9630   -57.7420 ca         1 VWY      -0.052500
      8 C1           3.0540    32.6470   -56.6130 c3         1 VWY      -0.117100
      9 C2           3.5580    34.0970   -56.5200 c3         1 VWY       0.103000
     10 C3           2.3760    35.3100   -58.3890 c          1 VWY       0.611700
     11 O1           3.0420    34.7530   -59.2520 o          1 VWY      -0.600100
     12 N2          -1.7080    39.0870   -59.8660 nu         1 VWY      -0.877100
     13 S1          -3.0740    39.6090   -59.0800 s6         1 VWY       1.196100
     14 O2          -2.6280    40.2860   -57.8610 o          1 VWY      -0.523500
     15 O3          -3.8370    40.3340   -60.0960 o          1 VWY      -0.523500
     16 C9          -0.4790    37.8870   -58.1040 ca         1 VWY      -0.144000
     17 H1           2.0000    35.5540   -56.3920 hn         1 VWY       0.313500
     18 H2           1.6120    36.1400   -60.8780 ha         1 VWY       0.130000
     19 H3          -0.1370    37.7610   -61.4910 ha         1 VWY       0.136000
     20 H4          -4.8830    38.4250   -58.1570 h1         1 VWY       0.104700
     21 H5          -4.1590    37.5810   -59.5810 h1         1 VWY       0.104700
     22 H6          -3.3210    37.5370   -57.9810 h1         1 VWY       0.104700
     23 H7           0.6760    36.7700   -56.6840 ha         1 VWY       0.130000
     24 H8           3.7980    31.9590   -56.1930 hc         1 VWY       0.043033
     25 H9           2.1190    32.5260   -56.0530 hc         1 VWY       0.043033
     26 H10          2.8740    32.3610   -57.6560 hc         1 VWY       0.043033
     27 H11          4.5010    34.1970   -57.0750 h1         1 VWY       0.053700
     28 H12          3.7580    34.3460   -55.4690 h1         1 VWY       0.053700
     29 H13         -1.9130    39.1550   -60.8530 hn         1 VWY       0.495000
     30 H14         -1.0430    38.3720   -57.3150 ha         1 VWY       0.136000
@<TRIPOS>BOND
     1     1     9 1   
     2     1    10 1   
     3     1    17 1   
     4     2     3 ar  
     5     2     7 ar  
     6     2    10 1   
     7     3     4 ar  
     8     3    18 1   
     9     4     5 ar  
    10     4    19 1   
    11     5    12 1   
    12     5    16 ar  
    13     6    13 1   
    14     6    20 1   
    15     6    21 1   
    16     6    22 1   
    17     7    16 ar  
    18     7    23 1   
    19     8     9 1   
    20     8    24 1   
    21     8    25 1   
    22     8    26 1   
    23     9    27 1   
    24     9    28 1   
    25    10    11 2   
    26    12    13 1   
    27    12    29 1   
    28    13    14 2   
    29    13    15 2   
    30    16    30 1   
@<TRIPOS>SUBSTRUCTURE
     1 VWY         1 TEMP              0 ****  ****    0 ROOT
