@<TRIPOS>MOLECULE
VWY
   30    30     1     0     0
SMALL
abcg2


@<TRIPOS>ATOM
      1 N1           2.4370    35.0570   -57.0130 ns         1 VWY      -0.501900
      2 C4           1.2920    36.4220   -58.6350 ca         1 VWY      -0.159600
      3 C5           0.7790    36.4420   -59.9300 ca         1 VWY      -0.052500
      4 C6          -0.1970    37.3520   -60.2890 ca         1 VWY      -0.144000
      5 C7          -0.6500    38.2980   -59.3710 ca         1 VWY       0.274000
      6 C8          -3.8310    37.8830   -58.9290 c3         1 VWY      -0.381100
      7 C10          0.8340    37.3710   -57.7240 ca         1 VWY      -0.052500
      8 C1           2.9610    32.6450   -56.7390 c3         1 VWY      -0.117100
      9 C2           3.4010    34.0880   -56.5340 c3         1 VWY       0.103000
     10 C3           2.3460    35.4170   -58.3020 c          1 VWY       0.611700
     11 O1           3.0790    34.9640   -59.1730 o          1 VWY      -0.600100
     12 N2          -1.6050    39.2480   -59.7870 nu         1 VWY      -0.877100
     13 S1          -3.0420    39.4740   -58.9720 s6         1 VWY       1.196100
     14 O2          -2.7280    39.8610   -57.6080 o          1 VWY      -0.523500
     15 O3          -3.8170    40.3700   -59.8100 o          1 VWY      -0.523500
     16 C9          -0.1140    38.3140   -58.0860 ca         1 VWY      -0.144000
     17 H1           1.7220    35.3530   -56.3690 hn         1 VWY       0.313500
     18 H2           1.1300    35.7260   -60.6610 ha         1 VWY       0.130000
     19 H3          -0.6060    37.3330   -61.2910 ha         1 VWY       0.136000
     20 H4          -4.7690    37.9960   -58.3880 h1         1 VWY       0.104700
     21 H5          -4.0240    37.5510   -59.9460 h1         1 VWY       0.104700
     22 H6          -3.1930    37.1700   -58.4110 h1         1 VWY       0.104700
     23 H7           1.2400    37.4200   -56.7220 ha         1 VWY       0.130000
     24 H8           3.7190    31.9630   -56.3520 hc         1 VWY       0.043033
     25 H9           2.0270    32.4400   -56.2160 hc         1 VWY       0.043033
     26 H10          2.8180    32.4240   -57.7960 hc         1 VWY       0.043033
     27 H11          4.3530    34.2670   -57.0320 h1         1 VWY       0.053700
     28 H12          3.5560    34.2860   -55.4740 h1         1 VWY       0.053700
     29 H13         -1.7440    39.2850   -60.7910 hn         1 VWY       0.495000
     30 H14         -0.4100    39.0660   -57.3700 ha         1 VWY       0.136000
@<TRIPOS>BOND
     1     1     9 1   
     2     1    10 1   
     3     1    17 1   
     4     2     3 ar  
     5     2     7 ar  
     6     2    10 1   
     7     3     4 ar  
     8     3    18 1   
     9     4     5 ar  
    10     4    19 1   
    11     5    12 1   
    12     5    16 ar  
    13     6    13 1   
    14     6    20 1   
    15     6    21 1   
    16     6    22 1   
    17     7    16 ar  
    18     7    23 1   
    19     8     9 1   
    20     8    24 1   
    21     8    25 1   
    22     8    26 1   
    23     9    27 1   
    24     9    28 1   
    25    10    11 2   
    26    12    13 1   
    27    12    29 1   
    28    13    14 2   
    29    13    15 2   
    30    16    30 1   
@<TRIPOS>SUBSTRUCTURE
     1 VWY         1 TEMP              0 ****  ****    0 ROOT
