@<TRIPOS>MOLECULE
VWZ
   25    26     1     0     0
SMALL
No Charge or Current Charge


@<TRIPOS>ATOM
      1 C7         -54.3020    26.7010    38.8980 ca         1 VWZ      -0.132000
      2 C6         -54.7230    28.0520    38.9730 cp         1 VWZ      -0.050000
      3 C4         -55.3930    28.0210    41.4250 ca         1 VWZ      -0.106000
      4 C5         -55.5760    28.6600    42.6640 ca         1 VWZ      -0.118000
      5 C3         -54.9170    28.7340    40.2940 cp         1 VWZ      -0.004000
      6 C2         -54.6330    30.1140    40.4570 ca         1 VWZ      -0.106000
      7 C1         -54.8140    30.7540    41.6950 ca         1 VWZ      -0.118000
      8 C8         -54.1180    26.0610    37.6600 ca         1 VWZ      -0.029000
      9 C9         -54.3480    26.7550    36.4540 ca         1 VWZ      -0.209500
     10 C10        -54.7760    28.0980    36.5130 ca         1 VWZ      -0.029000
     11 C11        -54.9570    28.7340    37.7530 ca         1 VWZ      -0.132000
     12 C          -55.2860    30.0270    42.7990 ca         1 VWZ      -0.128000
     13 O          -53.0620    24.9310    35.1190 o          1 VWZ      -0.692533
     14 O1         -55.4610    25.3470    34.5990 o          1 VWZ      -0.692533
     15 O2         -53.7440    27.0260    33.9390 o          1 VWZ      -0.692533
     16 S          -54.1190    25.9090    34.8200 s6         1 VWZ       1.260100
     17 H1         -54.1010    26.1430    39.8080 ha         1 VWZ       0.093000
     18 H2         -55.6350    26.9650    41.3380 ha         1 VWZ       0.116000
     19 H3         -55.9440    28.0950    43.5170 ha         1 VWZ       0.101000
     20 H4         -54.2540    30.6920    39.6180 ha         1 VWZ       0.116000
     21 H5         -54.5870    31.8120    41.7990 ha         1 VWZ       0.101000
     22 H6         -53.7960    25.0220    37.6410 ha         1 VWZ       0.128500
     23 H7         -54.9740    28.6500    35.5970 ha         1 VWZ       0.128500
     24 H8         -55.2980    29.7660    37.7640 ha         1 VWZ       0.093000
     25 H9         -55.4270    30.5210    43.7580 ha         1 VWZ       0.099000
@<TRIPOS>BOND
     1     1     2 ar  
     2     1     8 ar  
     3     1    17 1   
     4     2     5 1   
     5     2    11 ar  
     6     3     4 ar  
     7     3     5 ar  
     8     3    18 1   
     9     4    12 ar  
    10     4    19 1   
    11     5     6 ar  
    12     6     7 ar  
    13     6    20 1   
    14     7    12 ar  
    15     7    21 1   
    16     8     9 ar  
    17     8    22 1   
    18     9    10 ar  
    19     9    16 1   
    20    10    11 ar  
    21    10    23 1   
    22    11    24 1   
    23    12    25 1   
    24    13    16 1   
    25    14    16 1   
    26    15    16 1   
@<TRIPOS>SUBSTRUCTURE
     1 VWZ         1 TEMP              0 ****  ****    0 ROOT
