@<TRIPOS>MOLECULE
VWZ
   25    26     1     0     0
SMALL
abcg2


@<TRIPOS>ATOM
      1 C7         -54.1970    26.7550    38.9120 ca         1 VWZ      -0.132000
      2 C6         -54.7070    28.0500    38.9800 cp         1 VWZ      -0.050000
      3 C4         -55.3560    28.0100    41.3920 ca         1 VWZ      -0.106000
      4 C5         -55.5500    28.6430    42.6110 ca         1 VWZ      -0.118000
      5 C3         -54.9060    28.7240    40.2790 cp         1 VWZ      -0.004000
      6 C2         -54.6540    30.0890    40.4250 ca         1 VWZ      -0.106000
      7 C1         -54.8470    30.7220    41.6440 ca         1 VWZ      -0.118000
      8 C8         -54.0190    26.1170    37.6920 ca         1 VWZ      -0.029000
      9 C9         -54.3460    26.7690    36.5130 ca         1 VWZ      -0.209500
     10 C10        -54.8500    28.0650    36.5630 ca         1 VWZ      -0.029000
     11 C11        -55.0280    28.6950    37.7820 ca         1 VWZ      -0.132000
     12 C          -55.2970    30.0020    42.7420 ca         1 VWZ      -0.128000
     13 O          -53.5610    24.6500    35.2050 o          1 VWZ      -0.692533
     14 O1         -55.5310    25.8840    34.3850 o          1 VWZ      -0.692533
     15 O2         -53.2870    26.8540    34.1370 o          1 VWZ      -0.692533
     16 S          -54.1610    25.9640    34.9200 s6         1 VWZ       1.260100
     17 H1         -53.9160    26.2350    39.8200 ha         1 VWZ       0.093000
     18 H2         -55.5790    26.9540    41.3030 ha         1 VWZ       0.116000
     19 H3         -55.9070    28.0730    43.4600 ha         1 VWZ       0.101000
     20 H4         -54.2830    30.6620    39.5840 ha         1 VWZ       0.116000
     21 H5         -54.6390    31.7810    41.7360 ha         1 VWZ       0.101000
     22 H6         -53.6180    25.1130    37.6680 ha         1 VWZ       0.128500
     23 H7         -55.1150    28.5880    35.6530 ha         1 VWZ       0.128500
     24 H8         -55.4430    29.6950    37.8010 ha         1 VWZ       0.093000
     25 H9         -55.4490    30.4960    43.6940 ha         1 VWZ       0.099000
@<TRIPOS>BOND
     1     1     2 ar  
     2     1     8 ar  
     3     1    17 1   
     4     2     5 1   
     5     2    11 ar  
     6     3     4 ar  
     7     3     5 ar  
     8     3    18 1   
     9     4    12 ar  
    10     4    19 1   
    11     5     6 ar  
    12     6     7 ar  
    13     6    20 1   
    14     7    12 ar  
    15     7    21 1   
    16     8     9 ar  
    17     8    22 1   
    18     9    10 ar  
    19     9    16 1   
    20    10    11 ar  
    21    10    23 1   
    22    11    24 1   
    23    12    25 1   
    24    13    16 1   
    25    14    16 1   
    26    15    16 1   
@<TRIPOS>SUBSTRUCTURE
     1 VWZ         1 TEMP              0 ****  ****    0 ROOT
