@<TRIPOS>MOLECULE
VX0
   49    52     1     0     0
SMALL
No Charge or Current Charge


@<TRIPOS>ATOM
      1 C01        -25.4950    -5.2390    -8.9320 c3         1 VX0      -0.100100
      2 C02        -25.2390    -6.4340    -9.8960 c6         1 VX0       0.084300
      3 C03        -26.2330    -7.6230    -9.6930 c6         1 VX0       0.117700
      4 C05        -24.6350    -8.7470    -8.0780 c6         1 VX0       0.171300
      5 C06        -23.5960    -8.0460    -8.9240 cc         1 VX0      -0.158300
      6 C09        -21.8350    -7.3480   -10.1100 cd         1 VX0       0.233900
      7 C10        -22.2650    -8.3000    -9.1470 cd         1 VX0      -0.062400
      8 C12        -20.0740    -9.5340    -9.2400 c5         1 VX0       0.105000
      9 C13        -19.3630   -10.3910    -8.1470 c5         1 VX0      -0.090400
     10 C14        -20.5660   -11.1640    -7.5560 c5         1 VX0      -0.161400
     11 C15        -21.6450   -10.0880    -7.4990 c          1 VX0       0.560000
     12 C20        -27.3760    -9.6540    -5.0950 ca         1 VX0       0.033000
     13 C21        -26.7200   -10.5590    -4.2380 ca         1 VX0      -0.180500
     14 C22        -27.3370   -11.0040    -3.0570 ca         1 VX0       0.184500
     15 C23        -28.6190   -10.5460    -2.7110 ca         1 VX0       0.063000
     16 C24        -29.2770    -9.6370    -3.5570 ca         1 VX0       0.184500
     17 C25        -28.6630    -9.1910    -4.7400 ca         1 VX0      -0.180500
     18 C29        -27.6730    -7.2340   -10.1410 c3         1 VX0      -0.092100
     19 F26        -30.5090    -9.1810    -3.2370 f          1 VX0      -0.157000
     20 F27        -29.2150   -10.9740    -1.5720 f          1 VX0      -0.145000
     21 F28        -26.6860   -11.8760    -2.2540 f          1 VX0      -0.157000
     22 N04        -26.0410    -8.2750    -8.3370 n          1 VX0      -0.440800
     23 N07        -23.8780    -6.9740    -9.7560 na         1 VX0       0.129800
     24 N08        -22.7980    -6.5300   -10.4900 nc         1 VX0      -0.502800
     25 N11        -21.4190    -9.3090    -8.6470 n          1 VX0      -0.297000
     26 N19        -26.6840    -9.2470    -6.2680 ns         1 VX0      -0.172000
     27 O18        -28.2030    -8.0650    -7.5050 o          1 VX0      -0.608100
     28 H1         -24.7540    -4.4470    -9.0900 hc         1 VX0       0.056367
     29 H2         -26.4840    -4.7950    -9.0900 hc         1 VX0       0.056367
     30 H3         -25.4280    -5.5490    -7.8820 hc         1 VX0       0.056367
     31 H4         -25.3430    -6.0640   -10.9250 h1         1 VX0       0.081700
     32 H5         -25.9340    -8.3870   -10.4260 h1         1 VX0       0.062700
     33 H6         -24.5840    -9.8340    -8.2350 h1         1 VX0       0.079700
     34 H7         -24.3950    -8.5450    -7.0260 h1         1 VX0       0.079700
     35 H8         -20.8550    -7.2340   -10.5540 h4         1 VX0       0.041100
     36 H9         -20.1610   -10.0820   -10.1880 h1         1 VX0       0.052700
     37 H10        -19.5270    -8.6000    -9.4240 h1         1 VX0       0.052700
     38 H11        -18.5860   -11.0450    -8.5580 hc         1 VX0       0.057700
     39 H12        -18.8950    -9.7510    -7.3890 hc         1 VX0       0.057700
     40 H13        -20.8740   -11.9210    -8.2860 hc         1 VX0       0.079700
     41 H14        -20.3950   -11.6240    -6.5770 hc         1 VX0       0.079700
     42 H15        -25.7270   -10.9260    -4.4850 ha         1 VX0       0.150500
     43 H16        -29.2030    -8.4810    -5.3560 ha         1 VX0       0.150500
     44 H17        -28.3390    -8.1040   -10.1310 hc         1 VX0       0.057367
     45 H18        -28.1120    -6.4570    -9.5040 hc         1 VX0       0.057367
     46 H19        -27.6700    -6.8480   -11.1670 hc         1 VX0       0.057367
     47 H20        -25.7280    -9.5690    -6.3010 hn         1 VX0       0.160000
     48 C17        -27.0680    -8.4960    -7.3740 c          1 VX0       0.673100
     49 O16        -22.3740    -9.7990    -6.5610 o          1 VX0      -0.561000
@<TRIPOS>BOND
     1     1     2 1   
     2     1    28 1   
     3     1    29 1   
     4     1    30 1   
     5     2     3 1   
     6     2    23 1   
     7     2    31 1   
     8     3    18 1   
     9     3    22 1   
    10     3    32 1   
    11     4     5 1   
    12     4    22 1   
    13     4    33 1   
    14     4    34 1   
    15     5     7 2   
    16     5    23 1   
    17     6     7 1   
    18     6    24 2   
    19     6    35 1   
    20     7    25 1   
    21     8     9 1   
    22     8    25 1   
    23     8    36 1   
    24     8    37 1   
    25     9    10 1   
    26     9    38 1   
    27     9    39 1   
    28    10    11 1   
    29    10    40 1   
    30    10    41 1   
    31    11    25 1   
    32    11    49 2   
    33    12    13 ar  
    34    12    17 ar  
    35    12    26 1   
    36    13    14 ar  
    37    13    42 1   
    38    14    15 ar  
    39    14    21 1   
    40    15    16 ar  
    41    15    20 1   
    42    16    17 ar  
    43    16    19 1   
    44    17    43 1   
    45    18    44 1   
    46    18    45 1   
    47    18    46 1   
    48    22    48 1   
    49    23    24 1   
    50    26    47 1   
    51    26    48 1   
    52    27    48 2   
@<TRIPOS>SUBSTRUCTURE
     1 VX0         1 TEMP              0 ****  ****    0 ROOT
