@<TRIPOS>MOLECULE
VX0
   49    52     1     0     0
SMALL
abcg2


@<TRIPOS>ATOM
      1 C01        -25.8550    -5.5530    -8.9830 c3         1 VX0      -0.100100
      2 C02        -25.5050    -6.6800    -9.9480 c6         1 VX0       0.084300
      3 C03        -26.3720    -7.9460    -9.8250 c6         1 VX0       0.117700
      4 C05        -24.7090    -9.2420    -8.6040 c6         1 VX0       0.171300
      5 C06        -23.7270    -8.2560    -9.1520 cc         1 VX0      -0.158300
      6 C09        -21.9930    -7.0260    -9.7900 cd         1 VX0       0.233900
      7 C10        -22.3390    -8.2450    -9.1740 cd         1 VX0      -0.062400
      8 C12        -20.2840    -8.7990    -7.8650 c5         1 VX0       0.105000
      9 C13        -19.6780   -10.1290    -7.3670 c5         1 VX0      -0.090400
     10 C14        -20.4570   -11.2360    -8.0920 c5         1 VX0      -0.161400
     11 C15        -21.5790   -10.5390    -8.8280 c          1 VX0       0.560000
     12 C20        -27.0560    -9.6030    -5.2000 ca         1 VX0       0.033000
     13 C21        -27.2620   -10.8650    -4.6350 ca         1 VX0      -0.180500
     14 C22        -27.7700   -10.9580    -3.3560 ca         1 VX0       0.184500
     15 C23        -28.1040    -9.8320    -2.6210 ca         1 VX0       0.063000
     16 C24        -27.8980    -8.5900    -3.2030 ca         1 VX0       0.184500
     17 C25        -27.3720    -8.4540    -4.4710 ca         1 VX0      -0.180500
     18 C29        -27.8470    -7.7110   -10.1040 c3         1 VX0      -0.092100
     19 F26        -28.2170    -7.4940    -2.4870 f          1 VX0      -0.157000
     20 F27        -28.6150    -9.9420    -1.3830 f          1 VX0      -0.145000
     21 F28        -27.9640   -12.1670    -2.7950 f          1 VX0      -0.157000
     22 N04        -26.0470    -8.6530    -8.5720 n          1 VX0      -0.440800
     23 N07        -24.1190    -7.1090    -9.7520 na         1 VX0       0.129800
     24 N08        -23.0820    -6.3420   -10.1390 nc         1 VX0      -0.502800
     25 N11        -21.4720    -9.2000    -8.6240 n          1 VX0      -0.297000
     26 N19        -26.4930    -9.5390    -6.4800 ns         1 VX0      -0.172000
     27 O18        -27.7140    -7.7760    -7.2650 o          1 VX0      -0.608100
     28 H1         -25.1530    -4.7300    -9.1110 hc         1 VX0       0.056367
     29 H2         -26.8590    -5.1810    -9.1870 hc         1 VX0       0.056367
     30 H3         -25.8150    -5.8960    -7.9500 hc         1 VX0       0.056367
     31 H4         -25.5830    -6.3200   -10.9760 h1         1 VX0       0.081700
     32 H5         -26.0090    -8.6240   -10.6050 h1         1 VX0       0.062700
     33 H6         -24.6950   -10.1530    -9.2080 h1         1 VX0       0.079700
     34 H7         -24.3900    -9.5090    -7.5990 h1         1 VX0       0.079700
     35 H8         -21.0080    -6.6340    -9.9860 h4         1 VX0       0.041100
     36 H9         -19.5960    -8.2550    -8.5140 h1         1 VX0       0.052700
     37 H10        -20.5750    -8.1400    -7.0460 h1         1 VX0       0.052700
     38 H11        -18.6130   -10.1690    -7.5820 hc         1 VX0       0.057700
     39 H12        -19.7970   -10.2120    -6.2880 hc         1 VX0       0.057700
     40 H13        -19.8520   -11.7770    -8.8220 hc         1 VX0       0.079700
     41 H14        -20.8800   -11.9760    -7.4110 hc         1 VX0       0.079700
     42 H15        -27.0270   -11.7680    -5.1820 ha         1 VX0       0.150500
     43 H16        -27.2160    -7.4680    -4.8780 ha         1 VX0       0.150500
     44 H17        -28.3930    -8.6490    -9.9890 hc         1 VX0       0.057367
     45 H18        -28.2900    -6.9710    -9.4470 hc         1 VX0       0.057367
     46 H19        -27.9480    -7.3800   -11.1380 hc         1 VX0       0.057367
     47 H20        -26.0000   -10.3660    -6.7790 hn         1 VX0       0.160000
     48 C17        -26.8090    -8.5850    -7.4380 c          1 VX0       0.673100
     49 O16        -22.4460   -11.0830    -9.5080 o          1 VX0      -0.561000
@<TRIPOS>BOND
     1     1     2 1   
     2     1    28 1   
     3     1    29 1   
     4     1    30 1   
     5     2     3 1   
     6     2    23 1   
     7     2    31 1   
     8     3    18 1   
     9     3    22 1   
    10     3    32 1   
    11     4     5 1   
    12     4    22 1   
    13     4    33 1   
    14     4    34 1   
    15     5     7 2   
    16     5    23 1   
    17     6     7 1   
    18     6    24 2   
    19     6    35 1   
    20     7    25 1   
    21     8     9 1   
    22     8    25 1   
    23     8    36 1   
    24     8    37 1   
    25     9    10 1   
    26     9    38 1   
    27     9    39 1   
    28    10    11 1   
    29    10    40 1   
    30    10    41 1   
    31    11    25 1   
    32    11    49 2   
    33    12    13 ar  
    34    12    17 ar  
    35    12    26 1   
    36    13    14 ar  
    37    13    42 1   
    38    14    15 ar  
    39    14    21 1   
    40    15    16 ar  
    41    15    20 1   
    42    16    17 ar  
    43    16    19 1   
    44    17    43 1   
    45    18    44 1   
    46    18    45 1   
    47    18    46 1   
    48    22    48 1   
    49    23    24 1   
    50    26    47 1   
    51    26    48 1   
    52    27    48 2   
@<TRIPOS>SUBSTRUCTURE
     1 VX0         1 TEMP              0 ****  ****    0 ROOT
