@<TRIPOS>MOLECULE
VX1
   34    37     1     0     0
SMALL
bcc


@<TRIPOS>ATOM
      1 N1           3.3590     3.7150     0.5070 nv         1 VX1      -0.949500
      2 C2           3.8220     2.4840     0.2130 ca         1 VX1       0.909900
      3 N3           5.1260     2.3730    -0.0720 nb         1 VX1      -0.769000
      4 C4           5.5550     1.1500    -0.3270 ca         1 VX1       0.480200
      5 C5           4.7380     0.0310    -0.3060 ca         1 VX1      -0.425600
      6 C6           3.3980     0.2520     0.0050 cp         1 VX1       0.561800
      7 N7           2.9510     1.4770     0.2610 nb         1 VX1      -0.796000
      8 C8           2.4010    -0.8380     0.0470 cp         1 VX1      -0.186500
      9 C9           2.8250    -2.2120     0.0920 ca         1 VX1      -0.078000
     10 C10          1.9540    -3.2520     0.1020 ca         1 VX1      -0.122000
     11 C11          0.5660    -2.9480     0.0700 ca         1 VX1      -0.047000
     12 N12         -0.4490    -3.7810     0.0450 nc         1 VX1      -0.128500
     13 O13         -1.5530    -2.9860     0.0150 os         1 VX1       0.023400
     14 C14         -1.2420    -1.6980     0.0230 cc         1 VX1       0.138900
     15 C15         -2.3270    -0.7360    -0.0160 ca         1 VX1      -0.058800
     16 C16         -3.5640    -1.0740    -0.5710 ca         1 VX1      -0.082500
     17 C17         -4.5920    -0.1490    -0.6140 ca         1 VX1      -0.128500
     18 C18         -4.3850     1.1220    -0.0990 ca         1 VX1       0.046400
     19 CL19        -5.6670     2.2790    -0.1540 cl         1 VX1      -0.097400
     20 C20         -3.1690     1.4770     0.4640 ca         1 VX1      -0.128500
     21 C21         -2.1460     0.5460     0.5050 ca         1 VX1      -0.082500
     22 C22          0.1340    -1.5910     0.0550 ca         1 VX1      -0.184000
     23 C23          1.0680    -0.5320     0.0340 ca         1 VX1      -0.007000
     24 HN1          3.9340     4.5100     0.2890 hn         1 VX1       0.438800
     25 HN1A         2.3650     3.8640     0.5350 hn         1 VX1       0.438800
     26 H4           6.6080     1.0480    -0.5660 h4         1 VX1       0.021100
     27 H5           5.1410    -0.9400    -0.5450 ha         1 VX1       0.152000
     28 H9           3.8820    -2.4320     0.1310 ha         1 VX1       0.136000
     29 H10          2.2980    -4.2770     0.1360 ha         1 VX1       0.155000
     30 H16         -3.7330    -2.0570    -0.9890 ha         1 VX1       0.151000
     31 H17         -5.5440    -0.4180    -1.0520 ha         1 VX1       0.153500
     32 H20         -3.0190     2.4650     0.8760 ha         1 VX1       0.153500
     33 H21         -1.2130     0.8260     0.9750 ha         1 VX1       0.151000
     34 H23          0.7500     0.5000    -0.0100 ha         1 VX1       0.160000
@<TRIPOS>BOND
     1     1     2 1   
     2     1    24 1   
     3     1    25 1   
     4     2     3 ar  
     5     2     7 ar  
     6     3     4 ar  
     7     4     5 ar  
     8     4    26 1   
     9     5     6 ar  
    10     5    27 1   
    11     6     7 ar  
    12     6     8 1   
    13     8     9 ar  
    14     8    23 ar  
    15     9    10 ar  
    16     9    28 1   
    17    10    11 ar  
    18    10    29 1   
    19    11    12 2   
    20    11    22 ar  
    21    12    13 1   
    22    13    14 1   
    23    14    15 1   
    24    14    22 2   
    25    15    16 ar  
    26    15    21 ar  
    27    16    17 ar  
    28    16    30 1   
    29    17    18 ar  
    30    17    31 1   
    31    18    19 1   
    32    18    20 ar  
    33    20    21 ar  
    34    20    32 1   
    35    21    33 1   
    36    22    23 ar  
    37    23    34 1   
@<TRIPOS>SUBSTRUCTURE
     1 VX1         1 TEMP              0 ****  ****    0 ROOT
