@<TRIPOS>MOLECULE
VX1
   34    37     1     0     0
SMALL
No Charge or Current Charge


@<TRIPOS>ATOM
      1 N1           3.2520     3.7640     0.3820 nv         1 VX1      -1.059900
      2 C2           3.7650     2.5310     0.1480 ca         1 VX1       0.383900
      3 N3           5.0790     2.4730    -0.1100 nb         1 VX1      -0.243000
      4 C4           5.5780     1.2450    -0.3450 ca         1 VX1       0.151900
      5 C5           4.7580     0.1050    -0.3130 ca         1 VX1      -0.277000
      6 C6           3.3800     0.2710    -0.0230 cp         1 VX1       0.233500
      7 N7           2.8980     1.5110     0.2010 nb         1 VX1      -0.270000
      8 C8           2.4080    -0.8750     0.0370 cp         1 VX1      -0.186500
      9 C9           2.8510    -2.2200     0.2250 ca         1 VX1      -0.060000
     10 C10          1.9410    -3.2970     0.2670 ca         1 VX1      -0.104000
     11 C11          0.5720    -3.0340     0.1340 ca         1 VX1      -0.047000
     12 N12         -0.4640    -3.9620     0.1300 nc         1 VX1      -0.030000
     13 O13         -1.6720    -3.1520    -0.0510 os         1 VX1      -0.075100
     14 C14         -1.2900    -1.8310    -0.1300 cc         1 VX1       0.138900
     15 C15         -2.3060    -0.7790    -0.0840 ca         1 VX1      -0.058800
     16 C16         -3.5320    -0.9590    -0.7590 ca         1 VX1      -0.064500
     17 C17         -4.5200     0.0410    -0.7200 ca         1 VX1      -0.110500
     18 C18         -4.2930     1.2240     0.0000 ca         1 VX1       0.138000
     19 Cl19        -5.5300     2.4730     0.0500 cl         1 VX1      -0.189000
     20 C20         -3.0830     1.4070     0.6870 ca         1 VX1      -0.110500
     21 C21         -2.0940     0.4090     0.6480 ca         1 VX1      -0.064500
     22 C22          0.1330    -1.7500    -0.0210 ca         1 VX1      -0.184000
     23 C23          1.0050    -0.6530    -0.0900 ca         1 VX1       0.011000
     24 HN1          3.8140     4.5770     0.1400 hn         1 VX1       0.494000
     25 HN1A         2.2420     3.8840     0.3660 hn         1 VX1       0.494000
     26 H4           6.6420     1.1760    -0.5640 h4         1 VX1       0.021100
     27 H5           5.1850    -0.8710    -0.5220 ha         1 VX1       0.134000
     28 H9           3.9080    -2.4400     0.3450 ha         1 VX1       0.118000
     29 H10          2.2980    -4.3160     0.4010 ha         1 VX1       0.137000
     30 H16         -3.7160    -1.8710    -1.3220 ha         1 VX1       0.133000
     31 H17         -5.4600    -0.1010    -1.2480 ha         1 VX1       0.135500
     32 H20         -2.9150     2.3190     1.2530 ha         1 VX1       0.135500
     33 H21         -1.1720     0.5540     1.2060 ha         1 VX1       0.133000
     34 H23          0.6110     0.3460    -0.2590 ha         1 VX1       0.142000
@<TRIPOS>BOND
     1     1     2 1   
     2     1    24 1   
     3     1    25 1   
     4     2     3 ar  
     5     2     7 ar  
     6     3     4 ar  
     7     4     5 ar  
     8     4    26 1   
     9     5     6 ar  
    10     5    27 1   
    11     6     7 ar  
    12     6     8 1   
    13     8     9 ar  
    14     8    23 ar  
    15     9    10 ar  
    16     9    28 1   
    17    10    11 ar  
    18    10    29 1   
    19    11    12 2   
    20    11    22 ar  
    21    12    13 1   
    22    13    14 1   
    23    14    15 1   
    24    14    22 2   
    25    15    16 ar  
    26    15    21 ar  
    27    16    17 ar  
    28    16    30 1   
    29    17    18 ar  
    30    17    31 1   
    31    18    19 1   
    32    18    20 ar  
    33    20    21 ar  
    34    20    32 1   
    35    21    33 1   
    36    22    23 ar  
    37    23    34 1   
@<TRIPOS>SUBSTRUCTURE
     1 VX1         1 TEMP              0 ****  ****    0 ROOT
