@<TRIPOS>MOLECULE
VX2
   44    47     1     0     0
SMALL
abcg2


@<TRIPOS>ATOM
      1 C1          -4.9270    -0.7750     0.3070 c3         1 VX2       0.358300
      2 N2          -0.3920     3.7960    -0.0430 nc         1 VX2      -0.060000
      3 C3          -2.7850    -2.0520    -0.0310 ca         1 VX2      -0.050000
      4 C4          -1.4100    -2.0540    -0.2060 ca         1 VX2      -0.129000
      5 C5          -0.6930    -0.8690    -0.2290 ca         1 VX2      -0.057000
      6 C9           0.7980     3.2360    -0.1000 cd         1 VX2      -0.180000
      7 C10          2.1100     3.7720    -0.1120 cd         1 VX2       0.010000
      8 C12          2.8680     1.4810    -0.1990 cc         1 VX2       0.597900
      9 C13          3.7800    -0.8100    -0.2900 c6         1 VX2       0.239500
     10 C2          -3.4420    -0.8370     0.1210 ca         1 VX2      -0.206300
     11 C7          -2.7360     0.3550     0.0960 ca         1 VX2      -0.026000
     12 C11          3.1370     2.9020    -0.1570 cc         1 VX2      -0.189000
     13 C15          4.9680    -2.9440    -0.8910 c6         1 VX2      -0.070900
     14 N1          -1.2890     2.8100    -0.0380 nc         1 VX2      -0.372700
     15 F1          -5.4860    -1.9850     0.3860 f          1 VX2      -0.113000
     16 F2          -5.2600    -0.1140     1.4240 f          1 VX2      -0.113000
     17 F3          -5.5250    -0.1330    -0.7070 f          1 VX2      -0.113000
     18 C6          -1.3510     0.3540    -0.0780 ca         1 VX2      -0.097900
     19 C8          -0.6710     1.6450    -0.0910 cd         1 VX2       0.398400
     20 C14          5.0610    -1.4220    -0.8470 c6         1 VX2      -0.091900
     21 C16          4.6200    -3.5290     0.4740 c6         1 VX2      -0.078400
     22 C17          3.3450    -2.9040     1.0310 c6         1 VX2      -0.070900
     23 C18          3.4570    -1.3850     1.0900 c6         1 VX2      -0.091900
     24 N4           1.6580     0.9800    -0.1840 nd         1 VX2      -0.589800
     25 N5           0.6650     1.8800    -0.1360 na         1 VX2       0.172000
     26 H3          -3.3230    -2.9890    -0.0130 ha         1 VX2       0.131000
     27 H4          -0.8890    -2.9940    -0.3270 ha         1 VX2       0.119000
     28 H5           0.3780    -0.8980    -0.3630 ha         1 VX2       0.142000
     29 H10          2.2550     4.8430    -0.0830 ha         1 VX2       0.153000
     30 H13          2.9580    -1.0600    -0.9710 h1         1 VX2       0.072700
     31 H7          -3.2490     1.3000     0.2170 ha         1 VX2       0.153000
     32 H11          4.1620     3.2450    -0.1700 ha         1 VX2       0.133000
     33 H15          4.2010    -3.2360    -1.6170 hc         1 VX2       0.044450
     34 H15A         5.9100    -3.3600    -1.2540 hc         1 VX2       0.044450
     35 HN3          4.8300     1.0240    -0.1750 hn         1 VX2       0.497000
     36 H14          5.2550    -1.0260    -1.8470 hc         1 VX2       0.047950
     37 H14A         5.9070    -1.1230    -0.2170 hc         1 VX2       0.047950
     38 H16          4.5120    -4.6140     0.4020 hc         1 VX2       0.043200
     39 H16A         5.4450    -3.3440     1.1700 hc         1 VX2       0.043200
     40 H17          2.4940    -3.1850     0.4010 hc         1 VX2       0.044450
     41 H17A         3.1320    -3.2990     2.0270 hc         1 VX2       0.044450
     42 H18          4.2560    -1.1020     1.7850 hc         1 VX2       0.047950
     43 H18A         2.5320    -0.9480     1.4710 hc         1 VX2       0.047950
     44 N3           3.9070     0.6350    -0.2770 nu         1 VX2      -0.930100
@<TRIPOS>BOND
     1     1    10 1   
     2     1    15 1   
     3     1    16 1   
     4     1    17 1   
     5     2     6 2   
     6     2    14 1   
     7     3     4 ar  
     8     3    10 ar  
     9     3    26 1   
    10     4     5 ar  
    11     4    27 1   
    12     5    18 ar  
    13     5    28 1   
    14     6     7 1   
    15     6    25 1   
    16     7    12 2   
    17     7    29 1   
    18     8    12 1   
    19     8    24 2   
    20     8    44 1   
    21     9    20 1   
    22     9    23 1   
    23     9    30 1   
    24     9    44 1   
    25    10    11 ar  
    26    11    18 ar  
    27    11    31 1   
    28    12    32 1   
    29    13    20 1   
    30    13    21 1   
    31    13    33 1   
    32    13    34 1   
    33    14    19 2   
    34    18    19 1   
    35    19    25 1   
    36    20    36 1   
    37    20    37 1   
    38    21    22 1   
    39    21    38 1   
    40    21    39 1   
    41    22    23 1   
    42    22    40 1   
    43    22    41 1   
    44    23    42 1   
    45    23    43 1   
    46    24    25 1   
    47    35    44 1   
@<TRIPOS>SUBSTRUCTURE
     1 VX2         1 TEMP              0 ****  ****    0 ROOT
