@<TRIPOS>MOLECULE
VX2
   44    47     1     0     0
SMALL
No Charge or Current Charge


@<TRIPOS>ATOM
      1 C1          -5.0970    -0.7560     0.6280 c3         1 VX2       0.358300
      2 N2          -0.3150     3.8580    -0.1500 nc         1 VX2      -0.060000
      3 C3          -3.0710    -1.9630    -0.3720 ca         1 VX2      -0.050000
      4 C4          -1.7460    -1.9610    -0.8320 ca         1 VX2      -0.129000
      5 C5          -0.9760    -0.7880    -0.7800 ca         1 VX2      -0.057000
      6 C9           0.8420     3.2240    -0.1830 cd         1 VX2      -0.180000
      7 C10          2.1500     3.7860    -0.1460 cd         1 VX2       0.010000
      8 C12          2.8180     1.4530    -0.1630 cc         1 VX2       0.597900
      9 C13          3.8200    -0.8700    -0.1720 c6         1 VX2       0.239500
     10 C2          -3.6430    -0.7820     0.1420 ca         1 VX2      -0.206300
     11 C7          -2.8650     0.3970     0.1820 ca         1 VX2      -0.026000
     12 C11          3.1560     2.8500    -0.1470 cc         1 VX2      -0.189000
     13 C15          5.1080    -2.9780    -0.8350 c6         1 VX2      -0.070900
     14 N1          -1.3180     2.8820    -0.1660 nc         1 VX2      -0.372700
     15 F1          -5.5570    -1.9840     0.9620 f          1 VX2      -0.113000
     16 F2          -5.2530     0.0230     1.7230 f          1 VX2      -0.113000
     17 F3          -5.9230    -0.2700    -0.3240 f          1 VX2      -0.113000
     18 C6          -1.5190     0.4050    -0.2520 ca         1 VX2      -0.097900
     19 C8          -0.7460     1.6730    -0.2230 cd         1 VX2       0.398400
     20 C14          5.1070    -1.4280    -0.8320 c6         1 VX2      -0.091900
     21 C16          4.9330    -3.5400     0.5980 c6         1 VX2      -0.078400
     22 C17          3.6570    -2.9770     1.2700 c6         1 VX2      -0.070900
     23 C18          3.6600    -1.4270     1.2670 c6         1 VX2      -0.091900
     24 N4           1.6060     0.9060    -0.1920 nd         1 VX2      -0.589800
     25 N5           0.6190     1.8840    -0.2490 na         1 VX2       0.172000
     26 H3          -3.6500    -2.8830    -0.4300 ha         1 VX2       0.131000
     27 H4          -1.3150    -2.8730    -1.2410 ha         1 VX2       0.119000
     28 H5           0.0370    -0.8180    -1.1720 ha         1 VX2       0.142000
     29 H10          2.3380     4.8550    -0.1080 ha         1 VX2       0.153000
     30 H13          2.9620    -1.2050    -0.7770 h1         1 VX2       0.072700
     31 H7          -3.3100     1.3140     0.5650 ha         1 VX2       0.153000
     32 H11          4.1950     3.1540    -0.1180 ha         1 VX2       0.133000
     33 H15          4.2980    -3.3470    -1.4790 hc         1 VX2       0.044450
     34 H15A         6.0460    -3.3490    -1.2690 hc         1 VX2       0.044450
     35 HN3          4.7990     1.0570    -0.1130 hn         1 VX2       0.497000
     36 H14          5.1890    -1.0580    -1.8630 hc         1 VX2       0.047950
     37 H14A         5.9950    -1.0640    -0.2950 hc         1 VX2       0.047950
     38 H16          4.8840    -4.6370     0.5650 hc         1 VX2       0.043200
     39 H16A         5.8140    -3.2860     1.2050 hc         1 VX2       0.043200
     40 H17          2.7660    -3.3460     0.7430 hc         1 VX2       0.044450
     41 H17A         3.5840    -3.3470     2.3020 hc         1 VX2       0.044450
     42 H18          4.4750    -1.0590     1.9050 hc         1 VX2       0.047950
     43 H18A         2.7250    -1.0580     1.7100 hc         1 VX2       0.047950
     44 N3           3.8910     0.6020    -0.1350 nu         1 VX2      -0.930100
@<TRIPOS>BOND
     1     1    10 1   
     2     1    15 1   
     3     1    16 1   
     4     1    17 1   
     5     2     6 2   
     6     2    14 1   
     7     3     4 ar  
     8     3    10 ar  
     9     3    26 1   
    10     4     5 ar  
    11     4    27 1   
    12     5    18 ar  
    13     5    28 1   
    14     6     7 1   
    15     6    25 1   
    16     7    12 2   
    17     7    29 1   
    18     8    12 1   
    19     8    24 2   
    20     8    44 1   
    21     9    20 1   
    22     9    23 1   
    23     9    30 1   
    24     9    44 1   
    25    10    11 ar  
    26    11    18 ar  
    27    11    31 1   
    28    12    32 1   
    29    13    20 1   
    30    13    21 1   
    31    13    33 1   
    32    13    34 1   
    33    14    19 2   
    34    18    19 1   
    35    19    25 1   
    36    20    36 1   
    37    20    37 1   
    38    21    22 1   
    39    21    38 1   
    40    21    39 1   
    41    22    23 1   
    42    22    40 1   
    43    22    41 1   
    44    23    42 1   
    45    23    43 1   
    46    24    25 1   
    47    35    44 1   
@<TRIPOS>SUBSTRUCTURE
     1 VX2         1 TEMP              0 ****  ****    0 ROOT
