@<TRIPOS>MOLECULE
VX3
   38    41     1     0     0
SMALL
No Charge or Current Charge


@<TRIPOS>ATOM
      1 O2          -3.6960     2.1130     0.2270 o          1 VX3      -0.726500
      2 C16          0.3150    -0.7040    -0.0300 cc         1 VX3      -0.115400
      3 C19          2.9520    -3.2330    -0.9850 ca         1 VX3      -0.119000
      4 C3          -4.1830     0.9890     0.2170 c          1 VX3       0.721600
      5 O4          -5.3880     0.7940     0.2840 o          1 VX3      -0.726500
      6 C5          -3.2570    -0.2170     0.1160 ca         1 VX3      -0.137600
      7 C6          -1.8480    -0.0950     0.0750 ca         1 VX3      -0.016200
      8 N7          -1.0900     1.0660     0.1230 na         1 VX3      -0.179700
      9 C9           0.2780     0.6930     0.0580 cd         1 VX3      -0.015300
     10 C10          1.3790     1.6880    -0.0210 ca         1 VX3      -0.016800
     11 C11          2.6630     1.3700    -0.5230 ca         1 VX3      -0.097000
     12 C12          3.6760     2.3420    -0.5890 ca         1 VX3      -0.118000
     13 C13          3.4240     3.6540    -0.1620 ca         1 VX3      -0.123000
     14 C14          2.1530     3.9940     0.3220 ca         1 VX3      -0.118000
     15 C15          1.1390     3.0220     0.3860 ca         1 VX3      -0.097000
     16 C17          1.5300    -1.5120     0.0040 ca         1 VX3       0.024200
     17 C18          1.7890    -2.4430    -1.0200 ca         1 VX3      -0.110500
     18 C20          3.8590    -3.1000     0.0800 ca         1 VX3      -0.136000
     19 C21          3.6010    -2.1820     1.1110 ca         1 VX3      -0.119000
     20 C22          2.4380    -1.3940     1.0760 ca         1 VX3      -0.110500
     21 C23         -1.0330    -1.1870    -0.0190 ca         1 VX3      -0.113800
     22 C24         -1.5300    -2.4930    -0.0680 ca         1 VX3      -0.098000
     23 C25         -2.9270    -2.6610    -0.0300 ca         1 VX3      -0.152000
     24 C26         -3.7820    -1.5370     0.0600 ca         1 VX3      -0.090000
     25 H11          2.8870     0.3800    -0.9040 ha         1 VX3       0.124500
     26 H12          4.6560     2.0780    -0.9810 ha         1 VX3       0.103500
     27 H13          4.2090     4.4060    -0.2140 ha         1 VX3       0.099000
     28 H14          1.9520     5.0110     0.6490 ha         1 VX3       0.103500
     29 H15          0.1680     3.3150     0.7770 ha         1 VX3       0.124500
     30 H18          1.0890    -2.5470    -1.8460 ha         1 VX3       0.118500
     31 H20          4.7590    -3.7110     0.1070 ha         1 VX3       0.096000
     32 H21          4.3000    -2.0820     1.9380 ha         1 VX3       0.098500
     33 H22          2.2390    -0.6870     1.8770 ha         1 VX3       0.118500
     34 H24         -0.8640    -3.3500    -0.1330 ha         1 VX3       0.093000
     35 H25         -3.3520    -3.6620    -0.0690 ha         1 VX3       0.087000
     36 H26         -4.8580    -1.6990     0.0870 ha         1 VX3       0.125000
     37 HN7         -1.4690     2.0070     0.1550 hn         1 VX3       0.398000
     38 H19          3.1490    -3.9460    -1.7820 ha         1 VX3       0.098500
@<TRIPOS>BOND
     1     1     4 1   
     2     2     9 2   
     3     2    16 1   
     4     2    21 1   
     5     3    17 ar  
     6     3    18 ar  
     7     3    38 1   
     8     4     5 1   
     9     4     6 1   
    10     6     7 ar  
    11     6    24 ar  
    12     7     8 1   
    13     7    21 ar  
    14     8     9 1   
    15     8    37 1   
    16     9    10 1   
    17    10    11 ar  
    18    10    15 ar  
    19    11    12 ar  
    20    11    25 1   
    21    12    13 ar  
    22    12    26 1   
    23    13    14 ar  
    24    13    27 1   
    25    14    15 ar  
    26    14    28 1   
    27    15    29 1   
    28    16    17 ar  
    29    16    20 ar  
    30    17    30 1   
    31    18    19 ar  
    32    18    31 1   
    33    19    20 ar  
    34    19    32 1   
    35    20    33 1   
    36    21    22 ar  
    37    22    23 ar  
    38    22    34 1   
    39    23    24 ar  
    40    23    35 1   
    41    24    36 1   
@<TRIPOS>SUBSTRUCTURE
     1 VX3         1 TEMP              0 ****  ****    0 ROOT
