@<TRIPOS>MOLECULE
VX3
   38    41     1     0     0
SMALL
abcg2


@<TRIPOS>ATOM
      1 O2          -3.5070     2.1660    -0.0640 o          1 VX3      -0.726500
      2 C16          0.3680    -0.7240    -0.0030 cc         1 VX3      -0.115400
      3 C19          2.8870    -3.4090    -0.7830 ca         1 VX3      -0.119000
      4 C3          -4.1030     1.0620    -0.0330 c          1 VX3       0.721600
      5 O4          -5.3330     0.8910    -0.0250 o          1 VX3      -0.726500
      6 C5          -3.2260    -0.1720    -0.0050 ca         1 VX3      -0.137600
      7 C6          -1.8290    -0.0830     0.0040 ca         1 VX3      -0.016200
      8 N7          -1.0320     1.0190     0.0180 na         1 VX3      -0.179700
      9 C9           0.2850     0.6530     0.0000 cd         1 VX3      -0.015300
     10 C10          1.3310     1.6760    -0.0240 ca         1 VX3      -0.016800
     11 C11          2.4780     1.5120    -0.8050 ca         1 VX3      -0.097000
     12 C12          3.4570     2.4920    -0.8320 ca         1 VX3      -0.118000
     13 C13          3.3070     3.6550    -0.0860 ca         1 VX3      -0.123000
     14 C14          2.1680     3.8310     0.6860 ca         1 VX3      -0.118000
     15 C15          1.1880     2.8500     0.7180 ca         1 VX3      -0.097000
     16 C17          1.5810    -1.5450     0.0480 ca         1 VX3       0.024200
     17 C18          1.7440    -2.6250    -0.8230 ca         1 VX3      -0.110500
     18 C20          3.8960    -3.1260     0.1290 ca         1 VX3      -0.136000
     19 C21          3.7450    -2.0590     1.0040 ca         1 VX3      -0.119000
     20 C22          2.5980    -1.2820     0.9690 ca         1 VX3      -0.110500
     21 C23         -0.9820    -1.2110    -0.0020 ca         1 VX3      -0.113800
     22 C24         -1.5570    -2.4860     0.0250 ca         1 VX3      -0.098000
     23 C25         -2.9330    -2.5920     0.0280 ca         1 VX3      -0.152000
     24 C26         -3.7500    -1.4530     0.0060 ca         1 VX3      -0.090000
     25 H11          2.5970     0.6190    -1.4030 ha         1 VX3       0.124500
     26 H12          4.3360     2.3520    -1.4460 ha         1 VX3       0.103500
     27 H13          4.0720     4.4190    -0.1100 ha         1 VX3       0.099000
     28 H14          2.0420     4.7310     1.2730 ha         1 VX3       0.103500
     29 H15          0.3150     2.9940     1.3430 ha         1 VX3       0.124500
     30 H18          0.9730    -2.8400    -1.5520 ha         1 VX3       0.118500
     31 H20          4.7910    -3.7330     0.1580 ha         1 VX3       0.096000
     32 H21          4.5220    -1.8360     1.7230 ha         1 VX3       0.098500
     33 H22          2.4850    -0.4610     1.6650 ha         1 VX3       0.118500
     34 H24         -0.9360    -3.3740     0.0450 ha         1 VX3       0.093000
     35 H25         -3.3930    -3.5710     0.0460 ha         1 VX3       0.087000
     36 H26         -4.8260    -1.5700    -0.0010 ha         1 VX3       0.125000
     37 HN7         -1.4240     1.9450    -0.0660 hn         1 VX3       0.398000
     38 H19          2.9930    -4.2370    -1.4710 ha         1 VX3       0.098500
@<TRIPOS>BOND
     1     1     4 1   
     2     2     9 2   
     3     2    16 1   
     4     2    21 1   
     5     3    17 ar  
     6     3    18 ar  
     7     3    38 1   
     8     4     5 1   
     9     4     6 1   
    10     6     7 ar  
    11     6    24 ar  
    12     7     8 1   
    13     7    21 ar  
    14     8     9 1   
    15     8    37 1   
    16     9    10 1   
    17    10    11 ar  
    18    10    15 ar  
    19    11    12 ar  
    20    11    25 1   
    21    12    13 ar  
    22    12    26 1   
    23    13    14 ar  
    24    13    27 1   
    25    14    15 ar  
    26    14    28 1   
    27    15    29 1   
    28    16    17 ar  
    29    16    20 ar  
    30    17    30 1   
    31    18    19 ar  
    32    18    31 1   
    33    19    20 ar  
    34    19    32 1   
    35    20    33 1   
    36    21    22 ar  
    37    22    23 ar  
    38    22    34 1   
    39    23    24 ar  
    40    23    35 1   
    41    24    36 1   
@<TRIPOS>SUBSTRUCTURE
     1 VX3         1 TEMP              0 ****  ****    0 ROOT
