@<TRIPOS>MOLECULE
VX4
   31    32     1     0     0
SMALL
abcg2


@<TRIPOS>ATOM
      1 N1           7.7290    24.9200   -71.2100 n          1 VX4      -0.402800
      2 C4           8.8290    25.1090   -73.4510 c3         1 VX4      -0.091400
      3 C5           7.5640    24.7460   -72.6440 c3         1 VX4       0.101000
      4 C6           8.4080    23.8420   -70.4830 c3         1 VX4       0.113000
      5 C7           9.3770    23.0490   -71.3510 c3         1 VX4      -0.088400
      6 C8           7.4730    26.1340   -70.6890 c          1 VX4       0.530600
      7 C10          6.9570    25.4520   -68.2890 cc         1 VX4      -0.246000
      8 C1          11.2780    22.9610   -72.9690 c3         1 VX4      -0.089100
      9 C2          10.5330    23.8410   -71.9710 c3         1 VX4      -0.054700
     10 C3          10.1010    25.1680   -72.6100 c3         1 VX4      -0.068400
     11 O1           7.1700    27.1050   -71.3690 o          1 VX4      -0.571100
     12 C9           7.5120    26.2920   -69.2060 cd         1 VX4       0.233500
     13 S1           7.0900    26.1280   -66.7280 ss         1 VX4      -0.021400
     14 C11          7.8870    27.4900   -67.4130 cc         1 VX4       0.410300
     15 N2           8.0280    27.4500   -68.6950 nd         1 VX4      -0.590000
     16 H7           8.6870    26.0830   -73.9230 hc         1 VX4       0.046700
     17 H8           8.9420    24.3880   -74.2650 hc         1 VX4       0.046700
     18 H9           6.7220    25.3510   -72.9730 h1         1 VX4       0.054200
     19 H10          7.2790    23.7090   -72.8180 h1         1 VX4       0.054200
     20 H12          8.9570    24.2700   -69.6450 h1         1 VX4       0.043200
     21 H11          7.6720    23.1490   -70.0640 h1         1 VX4       0.043200
     22 H13          8.8320    22.5100   -72.1300 hc         1 VX4       0.044700
     23 H14          9.7950    22.2680   -70.7100 hc         1 VX4       0.044700
     24 H2          11.5560    22.0030   -72.5250 hc         1 VX4       0.033033
     25 H3          10.6660    22.7460   -73.8490 hc         1 VX4       0.033033
     26 H1          12.1930    23.4460   -73.3140 hc         1 VX4       0.033033
     27 H4          11.2320    24.0870   -71.1630 hc         1 VX4       0.044700
     28 H5          10.9180    25.5360   -73.2370 hc         1 VX4       0.046200
     29 H6           9.9740    25.9260   -71.8330 hc         1 VX4       0.046200
     30 H16          8.2330    28.3030   -66.7900 h5         1 VX4       0.057100
     31 H15          6.4790    24.4990   -68.4540 h4         1 VX4       0.165000
@<TRIPOS>BOND
     1     1     3 1   
     2     1     4 1   
     3     1     6 1   
     4     2     3 1   
     5     2    10 1   
     6     2    16 1   
     7     2    17 1   
     8     3    18 1   
     9     3    19 1   
    10     4     5 1   
    11     4    20 1   
    12     4    21 1   
    13     5     9 1   
    14     5    22 1   
    15     5    23 1   
    16     6    11 2   
    17     6    12 1   
    18     7    12 2   
    19     7    13 1   
    20     7    31 1   
    21     8     9 1   
    22     8    24 1   
    23     8    25 1   
    24     8    26 1   
    25     9    10 1   
    26     9    27 1   
    27    10    28 1   
    28    10    29 1   
    29    12    15 1   
    30    13    14 1   
    31    14    15 2   
    32    14    30 1   
@<TRIPOS>SUBSTRUCTURE
     1 VX4         1 TEMP              0 ****  ****    0 ROOT
