@<TRIPOS>MOLECULE
VX4
   31    32     1     0     0
SMALL
No Charge or Current Charge


@<TRIPOS>ATOM
      1 N1           7.8390    25.0590   -71.1990 n          1 VX4      -0.402800
      2 C4           8.9750    25.2020   -73.4800 c3         1 VX4      -0.091400
      3 C5           7.6930    24.8780   -72.6730 c3         1 VX4       0.101000
      4 C6           8.5820    23.9970   -70.4620 c3         1 VX4       0.113000
      5 C7           9.4030    22.9970   -71.3220 c3         1 VX4      -0.088400
      6 C8           7.3790    26.2790   -70.5990 c          1 VX4       0.530600
      7 C10          7.4540    25.4870   -68.1130 cc         1 VX4      -0.246000
      8 C1          11.0760    22.6270   -73.2150 c3         1 VX4      -0.089100
      9 C2          10.5840    23.6110   -72.1280 c3         1 VX4      -0.054700
     10 C3          10.3070    25.0270   -72.7050 c3         1 VX4      -0.068400
     11 O1           7.0280    27.1960   -71.3400 o          1 VX4      -0.571100
     12 C9           7.3440    26.4840   -69.0770 cd         1 VX4       0.233500
     13 S1           7.3580    26.1050   -66.4890 ss         1 VX4      -0.021400
     14 C11          7.1110    27.6770   -67.1750 cc         1 VX4       0.410300
     15 N2           7.1190    27.7440   -68.4990 nd         1 VX4      -0.590000
     16 H7           8.9160    26.2480   -73.8040 hc         1 VX4       0.046700
     17 H8           8.9890    24.5970   -74.3950 hc         1 VX4       0.046700
     18 H9           6.8660    25.4880   -73.0580 h1         1 VX4       0.054200
     19 H10          7.3930    23.8420   -72.8730 h1         1 VX4       0.054200
     20 H12          9.2630    24.4670   -69.7410 h1         1 VX4       0.043200
     21 H11          7.8450    23.3920   -69.9220 h1         1 VX4       0.043200
     22 H13          8.7330    22.4460   -71.9910 hc         1 VX4       0.044700
     23 H14          9.8150    22.2350   -70.6480 hc         1 VX4       0.044700
     24 H2          11.3380    21.6590   -72.7710 hc         1 VX4       0.033033
     25 H3          10.3010    22.4570   -73.9720 hc         1 VX4       0.033033
     26 H1          11.9680    23.0190   -73.7200 hc         1 VX4       0.033033
     27 H4          11.4160    23.7330   -71.4220 hc         1 VX4       0.044700
     28 H5          11.1350    25.3110   -73.3660 hc         1 VX4       0.046200
     29 H6          10.3350    25.7560   -71.8850 hc         1 VX4       0.046200
     30 H16          6.9600    28.5240   -66.5170 h5         1 VX4       0.057100
     31 H15          7.5500    24.4190   -68.2100 h4         1 VX4       0.165000
@<TRIPOS>BOND
     1     1     3 1   
     2     1     4 1   
     3     1     6 1   
     4     2     3 1   
     5     2    10 1   
     6     2    16 1   
     7     2    17 1   
     8     3    18 1   
     9     3    19 1   
    10     4     5 1   
    11     4    20 1   
    12     4    21 1   
    13     5     9 1   
    14     5    22 1   
    15     5    23 1   
    16     6    11 2   
    17     6    12 1   
    18     7    12 2   
    19     7    13 1   
    20     7    31 1   
    21     8     9 1   
    22     8    24 1   
    23     8    25 1   
    24     8    26 1   
    25     9    10 1   
    26     9    27 1   
    27    10    28 1   
    28    10    29 1   
    29    12    15 1   
    30    13    14 1   
    31    14    15 2   
    32    14    30 1   
@<TRIPOS>SUBSTRUCTURE
     1 VX4         1 TEMP              0 ****  ****    0 ROOT
