@<TRIPOS>MOLECULE
VX5
   37    38     1     0     0
SMALL
No Charge or Current Charge


@<TRIPOS>ATOM
      1 N1          25.6510     3.5480   -37.0590 n7         1 VX5      -0.863400
      2 C7          23.5150     4.4410   -36.0580 c6         1 VX5      -0.173700
      3 C8          23.4220     3.3010   -35.0000 c6         1 VX5      -0.064400
      4 C9          24.6750     2.3830   -35.0370 c6         1 VX5      -0.084400
      5 C1          19.0540     8.6840   -37.4260 c6         1 VX5      -0.071900
      6 C5          18.6830     7.9960   -34.9950 c6         1 VX5      -0.071900
      7 C6          22.7370     5.7090   -35.6680 c          1 VX5       0.599100
      8 C4          19.6760     6.8220   -35.1830 c6         1 VX5      -0.088400
      9 C3          20.7430     7.1500   -36.2620 c6         1 VX5       0.107700
     10 C2          20.0440     7.5050   -37.6000 c6         1 VX5      -0.088400
     11 O           23.0680     6.4080   -34.7210 o          1 VX5      -0.609100
     12 N           21.6480     6.0100   -36.4540 ns         1 VX5      -0.504900
     13 C           18.0020     8.3730   -36.3330 c6         1 VX5      -0.077400
     14 C11         24.9560     4.7550   -36.5190 c6         1 VX5       0.167800
     15 C10         25.2220     2.2430   -36.4780 c6         1 VX5       0.159800
     16 H1          25.5090     3.5020   -38.0760 hn         1 VX5       0.402000
     17 H3          23.0050     4.0510   -36.9510 hc         1 VX5       0.042700
     18 H4          23.3210     3.7200   -33.9890 hc         1 VX5       0.052700
     19 H5          22.5130     2.7090   -35.1770 hc         1 VX5       0.052700
     20 H6          24.4270     1.3940   -34.6300 hc         1 VX5       0.053200
     21 H7          25.4610     2.7960   -34.3900 hc         1 VX5       0.053200
     22 H8          19.6070     9.5960   -37.1590 hc         1 VX5       0.043450
     23 H9          18.5500     8.8920   -38.3800 hc         1 VX5       0.043450
     24 H10         19.2140     8.8690   -34.5910 hc         1 VX5       0.043450
     25 H11         17.9200     7.7240   -34.2520 hc         1 VX5       0.043450
     26 H12         19.1250     5.9150   -35.4660 hc         1 VX5       0.043450
     27 H13         20.1680     6.6030   -34.2260 hc         1 VX5       0.043450
     28 H14         21.3360     8.0170   -35.9310 h1         1 VX5       0.083700
     29 H15         19.5060     6.6280   -37.9870 hc         1 VX5       0.043450
     30 H16         20.7970     7.7680   -38.3550 hc         1 VX5       0.043450
     31 H17         21.4530     5.3710   -37.2150 hn         1 VX5       0.305500
     32 H18         17.3460     9.2420   -36.1870 hc         1 VX5       0.039700
     33 H19         17.3570     7.5470   -36.6650 hc         1 VX5       0.039700
     34 H20         25.5200     5.1360   -35.6530 h1         1 VX5       0.060700
     35 H21         24.9520     5.5540   -37.2770 h1         1 VX5       0.060700
     36 H22         24.4280     1.8170   -37.1100 h1         1 VX5       0.033200
     37 H23         26.0660     1.5390   -36.4970 h1         1 VX5       0.033200
@<TRIPOS>BOND
     1     1    14 1   
     2     1    15 1   
     3     1    16 1   
     4     2     3 1   
     5     2     7 1   
     6     2    14 1   
     7     2    17 1   
     8     3     4 1   
     9     3    18 1   
    10     3    19 1   
    11     4    15 1   
    12     4    20 1   
    13     4    21 1   
    14     5    10 1   
    15     5    13 1   
    16     5    22 1   
    17     5    23 1   
    18     6     8 1   
    19     6    13 1   
    20     6    24 1   
    21     6    25 1   
    22     7    11 2   
    23     7    12 1   
    24     8     9 1   
    25     8    26 1   
    26     8    27 1   
    27     9    10 1   
    28     9    12 1   
    29     9    28 1   
    30    10    29 1   
    31    10    30 1   
    32    12    31 1   
    33    13    32 1   
    34    13    33 1   
    35    14    34 1   
    36    14    35 1   
    37    15    36 1   
    38    15    37 1   
@<TRIPOS>SUBSTRUCTURE
     1 VX5         1 TEMP              0 ****  ****    0 ROOT
