@<TRIPOS>MOLECULE
VX5
   37    38     1     0     0
SMALL
abcg2


@<TRIPOS>ATOM
      1 N1          25.4270     3.4990   -37.2340 n7         1 VX5      -0.863400
      2 C7          23.3730     4.3300   -36.0660 c6         1 VX5      -0.173700
      3 C8          23.6210     3.4140   -34.8470 c6         1 VX5      -0.064400
      4 C9          24.9190     2.6030   -35.0010 c6         1 VX5      -0.084400
      5 C1          19.3050     8.8270   -37.3000 c6         1 VX5      -0.071900
      6 C5          18.5380     7.8650   -35.0960 c6         1 VX5      -0.071900
      7 C6          22.6410     5.6010   -35.6750 c          1 VX5       0.599100
      8 C4          19.4650     6.6650   -35.2990 c6         1 VX5      -0.088400
      9 C3          20.6750     7.0330   -36.1660 c6         1 VX5       0.107700
     10 C2          20.2370     7.6300   -37.5030 c6         1 VX5      -0.088400
     11 O           23.0690     6.3430   -34.7850 o          1 VX5      -0.609100
     12 N           21.5320     5.8750   -36.3860 ns         1 VX5      -0.504900
     13 C           18.0970     8.4590   -36.4350 c6         1 VX5      -0.077400
     14 C11         24.7210     4.6820   -36.7230 c6         1 VX5       0.167800
     15 C10         25.1810     2.2640   -36.4610 c6         1 VX5       0.159800
     16 H1          25.1470     3.3440   -38.1950 hn         1 VX5       0.402000
     17 H3          22.7780     3.7940   -36.8090 hc         1 VX5       0.042700
     18 H4          23.6740     4.0250   -33.9450 hc         1 VX5       0.052700
     19 H5          22.7690     2.7390   -34.7330 hc         1 VX5       0.052700
     20 H6          24.8630     1.6870   -34.4120 hc         1 VX5       0.053200
     21 H7          25.7680     3.1750   -34.6150 hc         1 VX5       0.053200
     22 H8          19.8620     9.6350   -36.8130 hc         1 VX5       0.043450
     23 H9          18.9760     9.2080   -38.2700 hc         1 VX5       0.043450
     24 H10         19.0640     8.6320   -34.5160 hc         1 VX5       0.043450
     25 H11         17.6680     7.5660   -34.5060 hc         1 VX5       0.043450
     26 H12         18.9170     5.8570   -35.7960 hc         1 VX5       0.043450
     27 H13         19.8140     6.2770   -34.3400 hc         1 VX5       0.043450
     28 H14         21.2800     7.7650   -35.6290 h1         1 VX5       0.083700
     29 H15         19.7180     6.8560   -38.0810 hc         1 VX5       0.043450
     30 H16         21.1200     7.9230   -38.0770 hc         1 VX5       0.043450
     31 H17         21.2230     5.1910   -37.0600 hn         1 VX5       0.305500
     32 H18         17.4710     9.3400   -36.2690 hc         1 VX5       0.039700
     33 H19         17.4820     7.7270   -36.9690 hc         1 VX5       0.039700
     34 H20         25.3410     5.1970   -35.9840 h1         1 VX5       0.060700
     35 H21         24.5730     5.3730   -37.5540 h1         1 VX5       0.060700
     36 H22         24.3190     1.7080   -36.8540 h1         1 VX5       0.033200
     37 H23         26.0520     1.6090   -36.5530 h1         1 VX5       0.033200
@<TRIPOS>BOND
     1     1    14 1   
     2     1    15 1   
     3     1    16 1   
     4     2     3 1   
     5     2     7 1   
     6     2    14 1   
     7     2    17 1   
     8     3     4 1   
     9     3    18 1   
    10     3    19 1   
    11     4    15 1   
    12     4    20 1   
    13     4    21 1   
    14     5    10 1   
    15     5    13 1   
    16     5    22 1   
    17     5    23 1   
    18     6     8 1   
    19     6    13 1   
    20     6    24 1   
    21     6    25 1   
    22     7    11 2   
    23     7    12 1   
    24     8     9 1   
    25     8    26 1   
    26     8    27 1   
    27     9    10 1   
    28     9    12 1   
    29     9    28 1   
    30    10    29 1   
    31    10    30 1   
    32    12    31 1   
    33    13    32 1   
    34    13    33 1   
    35    14    34 1   
    36    14    35 1   
    37    15    36 1   
    38    15    37 1   
@<TRIPOS>SUBSTRUCTURE
     1 VX5         1 TEMP              0 ****  ****    0 ROOT
