@<TRIPOS>MOLECULE
VX6
   61    65     1     0     0
SMALL
No Charge or Current Charge


@<TRIPOS>ATOM
      1 N1           6.4660     2.1330     0.7940 n3         1 VX6      -0.715600
      2 C2           5.7520     1.0430     1.5220 c6         1 VX6       0.149300
      3 C3           4.8320     0.1860     0.5940 c6         1 VX6       0.220300
      4 N4           3.8840     1.0130    -0.2280 nh         1 VX6      -0.774300
      5 C5           4.5480     2.1960    -0.8810 c6         1 VX6       0.220300
      6 C6           5.4710     2.9970     0.0920 c6         1 VX6       0.149300
      7 C7           7.3740     2.9050     1.6700 c3         1 VX6       0.153100
      8 C8           2.7050     0.4560    -0.7760 ca         1 VX6       0.424900
      9 C9           2.4360    -0.9190    -0.7460 ca         1 VX6      -0.357000
     10 C10          1.2410    -1.3540    -1.3170 ca         1 VX6       0.416900
     11 N11          0.3640    -0.5070    -1.8610 nb         1 VX6      -0.289000
     12 C12          0.6990     0.7980    -1.8450 ca         1 VX6       0.306300
     13 N13          1.8310     1.3140    -1.3330 nb         1 VX6      -0.280000
     14 N14          0.8700    -2.6850    -1.3430 nu         1 VX6      -0.945900
     15 C15          1.5050    -3.8370    -0.9420 cc         1 VX6       0.238000
     16 C17          2.8000    -4.2200    -1.0820 cd         1 VX6      -0.255000
     17 C18          2.9050    -5.5380    -0.5950 cd         1 VX6       0.270300
     18 N19          1.7480    -6.0240    -0.1810 nc         1 VX6      -0.518800
     19 N20          0.8790    -4.9630    -0.4190 na         1 VX6      -0.031200
     20 C21          4.1510    -6.3750    -0.5420 c3         1 VX6      -0.121400
     21 S23         -0.4530     1.9570    -2.5760 ss         1 VX6      -0.104300
     22 C24         -1.9590     1.5180    -1.7090 ca         1 VX6      -0.166000
     23 C25         -1.9710     1.4070    -0.3070 ca         1 VX6      -0.021500
     24 C26         -3.1590     1.0650     0.3600 ca         1 VX6      -0.171500
     25 C27         -4.3470     0.8300    -0.3580 ca         1 VX6       0.010000
     26 C28         -4.3280     0.9500    -1.7650 ca         1 VX6      -0.171500
     27 C29         -3.1400     1.2930    -2.4340 ca         1 VX6      -0.021500
     28 N30         -5.5090     0.4900     0.3870 ns         1 VX6      -0.144000
     29 C31         -6.8040     0.1700     0.0080 c          1 VX6       0.642100
     30 O32         -7.2050     0.1040    -1.1480 o          1 VX6      -0.580100
     31 C33         -7.7170    -0.1170     1.1790 cx         1 VX6      -0.254700
     32 C34         -8.0090     0.9950     2.1700 cx         1 VX6      -0.093400
     33 C35         -9.0880     0.5320     1.2200 cx         1 VX6      -0.093400
     34 H21          6.4750     0.3730     2.0090 h1         1 VX6       0.041950
     35 H22          5.1300     1.4730     2.3220 h1         1 VX6       0.041950
     36 H31          4.2760    -0.5090     1.2390 h1         1 VX6       0.061200
     37 H32          5.4670    -0.4190    -0.0700 h1         1 VX6       0.061200
     38 H51          3.8050     2.9010    -1.2820 h1         1 VX6       0.061200
     39 H52          5.1540     1.8520    -1.7320 h1         1 VX6       0.061200
     40 H61          4.8350     3.5110     0.8280 h1         1 VX6       0.041950
     41 H62          5.9860     3.7800    -0.4840 h1         1 VX6       0.041950
     42 H71          6.8150     3.4100     2.4690 h1         1 VX6       0.032367
     43 H72          8.1180     2.2440     2.1350 h1         1 VX6       0.032367
     44 H73          7.9140     3.6680     1.0920 h1         1 VX6       0.032367
     45 H9           3.1230    -1.6250    -0.3020 ha         1 VX6       0.141000
     46 H14         -0.1140    -2.8080    -1.5890 hn         1 VX6       0.516000
     47 H17          3.6020    -3.6290    -1.5050 ha         1 VX6       0.152000
     48 H20         -0.1120    -5.0340    -0.2060 hn         1 VX6       0.371000
     49 H211         5.0250    -5.8010    -0.8710 hc         1 VX6       0.048033
     50 H212         4.3450    -6.7270     0.4770 hc         1 VX6       0.048033
     51 H213         4.0610    -7.2530    -1.1930 hc         1 VX6       0.048033
     52 H25         -1.0640     1.5890     0.2670 ha         1 VX6       0.125500
     53 H26         -3.1540     0.9820     1.4440 ha         1 VX6       0.129500
     54 H28         -5.2190     0.7860    -2.3600 ha         1 VX6       0.129500
     55 H29         -3.1370     1.3830    -3.5190 ha         1 VX6       0.125500
     56 H30         -5.3640     0.4830     1.3880 hn         1 VX6       0.150000
     57 H33         -7.6410    -1.1240     1.5790 hc         1 VX6       0.084700
     58 H341        -8.1100     0.7280     3.2200 hc         1 VX6       0.083700
     59 H342        -7.5720     1.9760     1.9940 hc         1 VX6       0.083700
     60 H351        -9.3680     1.2010     0.4080 hc         1 VX6       0.083700
     61 H352        -9.9120    -0.0460     1.6330 hc         1 VX6       0.083700
@<TRIPOS>BOND
     1     1     2 1   
     2     1     6 1   
     3     1     7 1   
     4     2     3 1   
     5     2    34 1   
     6     2    35 1   
     7     3     4 1   
     8     3    36 1   
     9     3    37 1   
    10     4     5 1   
    11     4     8 1   
    12     5     6 1   
    13     5    38 1   
    14     5    39 1   
    15     6    40 1   
    16     6    41 1   
    17     7    42 1   
    18     7    43 1   
    19     7    44 1   
    20     8     9 ar  
    21     8    13 ar  
    22     9    10 ar  
    23     9    45 1   
    24    10    11 ar  
    25    10    14 1   
    26    11    12 ar  
    27    12    13 ar  
    28    12    21 1   
    29    14    15 1   
    30    14    46 1   
    31    15    16 2   
    32    15    19 1   
    33    16    17 1   
    34    16    47 1   
    35    17    18 2   
    36    17    20 1   
    37    18    19 1   
    38    19    48 1   
    39    20    49 1   
    40    20    50 1   
    41    20    51 1   
    42    21    22 1   
    43    22    23 ar  
    44    22    27 ar  
    45    23    24 ar  
    46    23    52 1   
    47    24    25 ar  
    48    24    53 1   
    49    25    26 ar  
    50    25    28 1   
    51    26    27 ar  
    52    26    54 1   
    53    27    55 1   
    54    28    29 1   
    55    28    56 1   
    56    29    30 2   
    57    29    31 1   
    58    31    32 1   
    59    31    33 1   
    60    31    57 1   
    61    32    33 1   
    62    32    58 1   
    63    32    59 1   
    64    33    60 1   
    65    33    61 1   
@<TRIPOS>SUBSTRUCTURE
     1 VX6         1 TEMP              0 ****  ****    0 ROOT
