@<TRIPOS>MOLECULE
VX6
   61    65     1     0     0
SMALL
bcc


@<TRIPOS>ATOM
      1 N1           6.9650     1.8690    -0.2840 n3         1 VX6      -0.715600
      2 C2           6.5440     0.6160     0.3010 c6         1 VX6       0.149300
      3 C3           5.3200     0.0590    -0.4070 c6         1 VX6       0.220300
      4 N4           4.2510     1.0380    -0.4160 nh         1 VX6      -0.774300
      5 C5           4.6590     2.3360    -0.9280 c6         1 VX6       0.220300
      6 C6           5.8920     2.8380    -0.2030 c6         1 VX6       0.149300
      7 C7           8.1820     2.3630     0.3170 c3         1 VX6       0.153100
      8 C8           2.9470     0.7040    -0.3000 ca         1 VX6       0.753200
      9 C9           2.5100    -0.6180    -0.1030 ca         1 VX6      -0.505600
     10 C10          1.1440    -0.8130     0.0310 ca         1 VX6       0.745200
     11 N11          0.2630     0.1980    -0.0110 nb         1 VX6      -0.815000
     12 C12          0.7870     1.3830    -0.2110 ca         1 VX6       0.832300
     13 N13          2.0530     1.7050    -0.3720 nb         1 VX6      -0.806000
     14 N14          0.5680    -2.0330     0.2280 nu         1 VX6      -0.752300
     15 C15          1.1870    -3.2640     0.1650 cc         1 VX6       0.150300
     16 C17          2.1810    -3.7760    -0.6430 cd         1 VX6      -0.338300
     17 C18          2.3210    -5.1150    -0.2250 cd         1 VX6       0.335600
     18 N19          1.4750    -5.4010     0.7460 nc         1 VX6      -0.518800
     19 N20          0.8090    -4.2670     0.9790 na         1 VX6      -0.031600
     20 C21          3.2630    -6.1380    -0.7610 c3         1 VX6      -0.121400
     21 S23         -0.2790     2.7950    -0.2890 ss         1 VX6      -0.231200
     22 C24         -1.8810     2.0860    -0.0690 ca         1 VX6      -0.039100
     23 C25         -2.3870     1.8620     1.2060 ca         1 VX6      -0.039500
     24 C26         -3.6540     1.3400     1.3690 ca         1 VX6      -0.189500
     25 C27         -4.4530     1.0340     0.2610 ca         1 VX6       0.102600
     26 C28         -3.9480     1.2670    -1.0200 ca         1 VX6      -0.189500
     27 C29         -2.6710     1.7880    -1.1700 ca         1 VX6      -0.039500
     28 N30         -5.7140     0.5060     0.5290 ns         1 VX6      -0.470100
     29 C31         -6.7210     0.1850    -0.3290 c          1 VX6       0.709100
     30 O32         -6.6530     0.3250    -1.5380 o          1 VX6      -0.580100
     31 C33         -7.9280    -0.3550     0.3470 cx         1 VX6      -0.254700
     32 C34         -9.2760    -0.0140    -0.2370 cx         1 VX6      -0.093400
     33 C35         -8.7430    -1.3890    -0.3870 cx         1 VX6      -0.093400
     34 H21          7.3510    -0.1150     0.2140 h1         1 VX6       0.041950
     35 H22          6.3150     0.7200     1.3760 h1         1 VX6       0.041950
     36 H31          5.0140    -0.8400     0.1210 h1         1 VX6       0.061200
     37 H32          5.5800    -0.2280    -1.4330 h1         1 VX6       0.061200
     38 H51          3.8460     3.0450    -0.8110 h1         1 VX6       0.061200
     39 H52          4.8780     2.2510    -2.0000 h1         1 VX6       0.061200
     40 H61          5.6290     3.0720     0.8430 h1         1 VX6       0.041950
     41 H62          6.2130     3.7710    -0.6730 h1         1 VX6       0.041950
     42 H71          8.0770     2.5900     1.3890 h1         1 VX6       0.032367
     43 H72          8.9780     1.6250     0.2090 h1         1 VX6       0.032367
     44 H73          8.5010     3.2760    -0.1870 h1         1 VX6       0.032367
     45 H9           3.1890    -1.4510    -0.0590 ha         1 VX6       0.159000
     46 H14         -0.4330    -2.0130     0.3560 hn         1 VX6       0.460800
     47 H17          2.7100    -3.2760    -1.4370 ha         1 VX6       0.170000
     48 H20          0.1020    -4.2340     1.6960 hn         1 VX6       0.320700
     49 H211         3.1840    -6.2170    -1.8460 hc         1 VX6       0.048033
     50 H212         4.2980    -5.8820    -0.5300 hc         1 VX6       0.048033
     51 H213         3.0550    -7.1170    -0.3340 hc         1 VX6       0.048033
     52 H25         -1.7900     2.0940     2.0790 ha         1 VX6       0.143500
     53 H26         -4.0330     1.1680     2.3700 ha         1 VX6       0.147500
     54 H28         -4.5310     1.0480    -1.8980 ha         1 VX6       0.147500
     55 H29         -2.2910     1.9600    -2.1680 ha         1 VX6       0.143500
     56 H30         -5.9100     0.3620     1.5080 hn         1 VX6       0.316500
     57 H33         -7.8800    -0.4530     1.4260 hc         1 VX6       0.084700
     58 H341       -10.0780     0.1580     0.4680 hc         1 VX6       0.083700
     59 H342        -9.2900     0.6270    -1.1090 hc         1 VX6       0.083700
     60 H351        -8.3890    -1.6970    -1.3620 hc         1 VX6       0.083700
     61 H352        -9.1730    -2.1810     0.2130 hc         1 VX6       0.083700
@<TRIPOS>BOND
     1     1     2 1   
     2     1     6 1   
     3     1     7 1   
     4     2     3 1   
     5     2    34 1   
     6     2    35 1   
     7     3     4 1   
     8     3    36 1   
     9     3    37 1   
    10     4     5 1   
    11     4     8 1   
    12     5     6 1   
    13     5    38 1   
    14     5    39 1   
    15     6    40 1   
    16     6    41 1   
    17     7    42 1   
    18     7    43 1   
    19     7    44 1   
    20     8     9 ar  
    21     8    13 ar  
    22     9    10 ar  
    23     9    45 1   
    24    10    11 ar  
    25    10    14 1   
    26    11    12 ar  
    27    12    13 ar  
    28    12    21 1   
    29    14    15 1   
    30    14    46 1   
    31    15    16 2   
    32    15    19 1   
    33    16    17 1   
    34    16    47 1   
    35    17    18 2   
    36    17    20 1   
    37    18    19 1   
    38    19    48 1   
    39    20    49 1   
    40    20    50 1   
    41    20    51 1   
    42    21    22 1   
    43    22    23 ar  
    44    22    27 ar  
    45    23    24 ar  
    46    23    52 1   
    47    24    25 ar  
    48    24    53 1   
    49    25    26 ar  
    50    25    28 1   
    51    26    27 ar  
    52    26    54 1   
    53    27    55 1   
    54    28    29 1   
    55    28    56 1   
    56    29    30 2   
    57    29    31 1   
    58    31    32 1   
    59    31    33 1   
    60    31    57 1   
    61    32    33 1   
    62    32    58 1   
    63    32    59 1   
    64    33    60 1   
    65    33    61 1   
@<TRIPOS>SUBSTRUCTURE
     1 VX6         1 TEMP              0 ****  ****    0 ROOT
