@<TRIPOS>MOLECULE
VX7
   57    59     1     0     0
SMALL
No Charge or Current Charge


@<TRIPOS>ATOM
      1 O24         -2.3190     0.9360    -0.8880 o          1 VX7      -0.593100
      2 C23         -3.0080     0.0920    -0.3330 c          1 VX7       0.610900
      3 C22         -4.4770     0.1920    -0.4040 ca         1 VX7      -0.194600
      4 C21         -5.1190     1.2580    -1.0730 ca         1 VX7      -0.022000
      5 C20         -6.5210     1.3160    -1.1170 ca         1 VX7      -0.147000
      6 C19         -7.2820     0.3140    -0.4950 ca         1 VX7      -0.049000
      7 C18         -6.6320    -0.7410     0.1670 ca         1 VX7      -0.168000
      8 C17         -5.2280    -0.8010     0.2120 ca         1 VX7       0.301000
      9 N16         -4.6400    -1.8660     0.8780 na         1 VX7      -0.774000
     10 C15         -3.2500    -2.0260     1.0130 cc         1 VX7       0.131000
     11 C14         -2.4530    -1.0550     0.4160 cd         1 VX7      -0.377400
     12 C12         -0.9810    -1.2610     0.5840 c          1 VX7       0.636300
     13 O13         -0.5480    -2.2410     1.1820 o          1 VX7      -0.630100
     14 N11         -0.1310    -0.2910     0.0680 ns         1 VX7      -0.164000
     15 C10          1.2900    -0.2440     0.0170 ca         1 VX7       0.017000
     16 C09          1.9810    -1.4420    -0.2340 ca         1 VX7      -0.208000
     17 C08          3.3740    -1.4900    -0.3210 ca         1 VX7       0.150100
     18 O25          3.9350    -2.7100    -0.5650 oh         1 VX7      -0.538100
     19 C07          4.1500    -0.3100    -0.1720 ca         1 VX7      -0.101300
     20 C26          5.7190    -0.3220    -0.2680 c3         1 VX7       0.019300
     21 C28          6.3630     1.0830    -0.0630 c3         1 VX7      -0.083100
     22 C29          6.3220    -1.2410     0.8330 c3         1 VX7      -0.083100
     23 C27          6.1710    -0.8080    -1.6760 c3         1 VX7      -0.083100
     24 C06          3.4390     0.8980     0.0630 ca         1 VX7      -0.077000
     25 C05          2.0210     0.9720     0.1700 ca         1 VX7      -0.108300
     26 C02          1.3210     2.3590     0.4230 c3         1 VX7       0.014300
     27 C03          2.3150     3.4870     0.8400 c3         1 VX7      -0.085100
     28 C04          0.6470     2.8230    -0.8940 c3         1 VX7      -0.085100
     29 C01          0.2690     2.2810     1.5730 c3         1 VX7      -0.085100
     30 H1          -4.5360     2.0400    -1.5580 ha         1 VX7       0.142000
     31 H2          -7.0170     2.1370    -1.6310 ha         1 VX7       0.124000
     32 H3          -8.3690     0.3540    -0.5260 ha         1 VX7       0.120000
     33 H4          -7.2260    -1.5140     0.6460 ha         1 VX7       0.119000
     34 H5          -2.8840    -2.8920     1.5700 h4         1 VX7       0.231000
     35 H7          -0.5990     0.5070    -0.3420 hn         1 VX7       0.199000
     36 H8           1.4190    -2.3590    -0.3840 ha         1 VX7       0.121000
     37 H9           3.2170    -3.3740    -0.6170 ho         1 VX7       0.462000
     38 H10          6.1190     1.4920     0.9250 hc         1 VX7       0.034922
     39 H11          7.4570     1.0290    -0.1300 hc         1 VX7       0.034922
     40 H12          6.0290     1.7910    -0.8320 hc         1 VX7       0.034922
     41 H13          5.9590    -0.9440     1.8240 hc         1 VX7       0.034922
     42 H14          6.0710    -2.2960     0.6840 hc         1 VX7       0.034922
     43 H15          7.4170    -1.1760     0.8430 hc         1 VX7       0.034922
     44 H16          7.2590    -0.7250    -1.7890 hc         1 VX7       0.034922
     45 H17          5.9130    -1.8550    -1.8600 hc         1 VX7       0.034922
     46 H18          5.7030    -0.2010    -2.4610 hc         1 VX7       0.034922
     47 H19          4.0070     1.8080     0.1610 ha         1 VX7       0.116000
     48 H20          3.0180     3.7290     0.0340 hc         1 VX7       0.035144
     49 H21          1.7830     4.4180     1.0730 hc         1 VX7       0.035144
     50 H22          2.8860     3.2000     1.7320 hc         1 VX7       0.035144
     51 H23         -0.0540     2.0760    -1.2770 hc         1 VX7       0.035144
     52 H24          0.0960     3.7600    -0.7470 hc         1 VX7       0.035144
     53 H25          1.3990     2.9910    -1.6740 hc         1 VX7       0.035144
     54 H26          0.6720     1.7270     2.4300 hc         1 VX7       0.035144
     55 H27         -0.0090     3.2810     1.9260 hc         1 VX7       0.035144
     56 H28         -0.6680     1.8110     1.2630 hc         1 VX7       0.035144
     57 H29         -5.2580    -2.5620     1.2950 hn         1 VX7       0.513000
@<TRIPOS>BOND
     1     1     2 2   
     2     2     3 1   
     3     2    11 1   
     4     3     4 ar  
     5     3     8 ar  
     6     4     5 ar  
     7     4    30 1   
     8     5     6 ar  
     9     5    31 1   
    10     6     7 ar  
    11     6    32 1   
    12     7     8 ar  
    13     7    33 1   
    14     8     9 1   
    15     9    10 1   
    16     9    57 1   
    17    10    11 2   
    18    10    34 1   
    19    11    12 1   
    20    12    13 2   
    21    12    14 1   
    22    14    15 1   
    23    14    35 1   
    24    15    16 ar  
    25    15    25 ar  
    26    16    17 ar  
    27    16    36 1   
    28    17    18 1   
    29    17    19 ar  
    30    18    37 1   
    31    19    20 1   
    32    19    24 ar  
    33    20    21 1   
    34    20    22 1   
    35    20    23 1   
    36    21    38 1   
    37    21    39 1   
    38    21    40 1   
    39    22    41 1   
    40    22    42 1   
    41    22    43 1   
    42    23    44 1   
    43    23    45 1   
    44    23    46 1   
    45    24    25 ar  
    46    24    47 1   
    47    25    26 1   
    48    26    27 1   
    49    26    28 1   
    50    26    29 1   
    51    27    48 1   
    52    27    49 1   
    53    27    50 1   
    54    28    51 1   
    55    28    52 1   
    56    28    53 1   
    57    29    54 1   
    58    29    55 1   
    59    29    56 1   
@<TRIPOS>SUBSTRUCTURE
     1 VX7         1 TEMP              0 ****  ****    0 ROOT
