@<TRIPOS>MOLECULE
VX7
   57    59     1     0     0
SMALL
abcg2


@<TRIPOS>ATOM
      1 O24         -2.3890     0.9210    -1.1700 o          1 VX7      -0.593100
      2 C23         -3.0100     0.1200    -0.4610 c          1 VX7       0.610900
      3 C22         -4.4780     0.0970    -0.4790 ca         1 VX7      -0.194600
      4 C21         -5.1960     0.9790    -1.2980 ca         1 VX7      -0.022000
      5 C20         -6.5720     0.9580    -1.3160 ca         1 VX7      -0.147000
      6 C19         -7.2680     0.0490    -0.5110 ca         1 VX7      -0.049000
      7 C18         -6.5890    -0.8280     0.3040 ca         1 VX7      -0.168000
      8 C17         -5.1910    -0.8040     0.3200 ca         1 VX7       0.301000
      9 N16         -4.4910    -1.6690     1.1230 na         1 VX7      -0.774000
     10 C15         -3.1630    -1.6790     1.1680 cc         1 VX7       0.131000
     11 C14         -2.3810    -0.8350     0.4220 cd         1 VX7      -0.377400
     12 C12         -0.9100    -0.9830     0.5980 c          1 VX7       0.636300
     13 O13         -0.4470    -1.7960     1.3880 o          1 VX7      -0.630100
     14 N11         -0.1500    -0.1630    -0.1570 ns         1 VX7      -0.164000
     15 C10          1.2610    -0.1560    -0.1350 ca         1 VX7       0.017000
     16 C09          1.9070    -1.3480    -0.4440 ca         1 VX7      -0.208000
     17 C08          3.2890    -1.4500    -0.4770 ca         1 VX7       0.150100
     18 O25          3.8750    -2.6300    -0.7790 oh         1 VX7      -0.538100
     19 C07          4.0830    -0.3260    -0.2090 ca         1 VX7      -0.101300
     20 C26          5.6130    -0.3640    -0.2500 c3         1 VX7       0.019300
     21 C28          6.2250     1.0010     0.0840 c3         1 VX7      -0.083100
     22 C29          6.1560    -1.3640     0.7820 c3         1 VX7      -0.083100
     23 C27          6.0980    -0.7390    -1.6590 c3         1 VX7      -0.083100
     24 C06          3.3950     0.8470     0.0880 ca         1 VX7      -0.077000
     25 C05          2.0070     0.9940     0.1510 ca         1 VX7      -0.108300
     26 C02          1.3940     2.3630     0.4780 c3         1 VX7       0.014300
     27 C03          2.4560     3.3550     0.9730 c3         1 VX7      -0.085100
     28 C04          0.7740     2.9720    -0.7890 c3         1 VX7      -0.085100
     29 C01          0.3370     2.2720     1.5890 c3         1 VX7      -0.085100
     30 H1          -4.6540     1.6800    -1.9170 ha         1 VX7       0.142000
     31 H2          -7.1180     1.6420    -1.9510 ha         1 VX7       0.124000
     32 H3          -8.3490     0.0330    -0.5260 ha         1 VX7       0.120000
     33 H4          -7.1250    -1.5320     0.9280 ha         1 VX7       0.119000
     34 H5          -2.7240    -2.4050     1.8370 h4         1 VX7       0.231000
     35 H7          -0.6590     0.4950    -0.7420 hn         1 VX7       0.199000
     36 H8           1.3100    -2.2200    -0.6850 ha         1 VX7       0.121000
     37 H9           3.2030    -3.2970    -0.9570 ho         1 VX7       0.462000
     38 H10          5.9530     1.3490     1.0820 hc         1 VX7       0.034922
     39 H11          7.3130     0.9210     0.0560 hc         1 VX7       0.034922
     40 H12          5.9410     1.7720    -0.6360 hc         1 VX7       0.034922
     41 H13          5.8330    -1.0970     1.7900 hc         1 VX7       0.034922
     42 H14          5.8390    -2.3860     0.5850 hc         1 VX7       0.034922
     43 H15          7.2480    -1.3500     0.7690 hc         1 VX7       0.034922
     44 H16          7.1890    -0.7140    -1.6960 hc         1 VX7       0.034922
     45 H17          5.7820    -1.7350    -1.9600 hc         1 VX7       0.034922
     46 H18          5.7260    -0.0260    -2.3980 hc         1 VX7       0.034922
     47 H19          3.9910     1.7200     0.2900 ha         1 VX7       0.116000
     48 H20          3.2070     3.5850     0.2160 hc         1 VX7       0.035144
     49 H21          1.9700     4.2980     1.2300 hc         1 VX7       0.035144
     50 H22          2.9700     2.9950     1.8670 hc         1 VX7       0.035144
     51 H23         -0.0780     2.4070    -1.1620 hc         1 VX7       0.035144
     52 H24          0.4160     3.9840    -0.5870 hc         1 VX7       0.035144
     53 H25          1.5110     3.0340    -1.5920 hc         1 VX7       0.035144
     54 H26          0.7290     1.7580     2.4680 hc         1 VX7       0.035144
     55 H27          0.0420     3.2770     1.8970 hc         1 VX7       0.035144
     56 H28         -0.5690     1.7600     1.2770 hc         1 VX7       0.035144
     57 H29         -5.0010    -2.3260     1.6960 hn         1 VX7       0.513000
@<TRIPOS>BOND
     1     1     2 2   
     2     2     3 1   
     3     2    11 1   
     4     3     4 ar  
     5     3     8 ar  
     6     4     5 ar  
     7     4    30 1   
     8     5     6 ar  
     9     5    31 1   
    10     6     7 ar  
    11     6    32 1   
    12     7     8 ar  
    13     7    33 1   
    14     8     9 1   
    15     9    10 1   
    16     9    57 1   
    17    10    11 2   
    18    10    34 1   
    19    11    12 1   
    20    12    13 2   
    21    12    14 1   
    22    14    15 1   
    23    14    35 1   
    24    15    16 ar  
    25    15    25 ar  
    26    16    17 ar  
    27    16    36 1   
    28    17    18 1   
    29    17    19 ar  
    30    18    37 1   
    31    19    20 1   
    32    19    24 ar  
    33    20    21 1   
    34    20    22 1   
    35    20    23 1   
    36    21    38 1   
    37    21    39 1   
    38    21    40 1   
    39    22    41 1   
    40    22    42 1   
    41    22    43 1   
    42    23    44 1   
    43    23    45 1   
    44    23    46 1   
    45    24    25 ar  
    46    24    47 1   
    47    25    26 1   
    48    26    27 1   
    49    26    28 1   
    50    26    29 1   
    51    27    48 1   
    52    27    49 1   
    53    27    50 1   
    54    28    51 1   
    55    28    52 1   
    56    28    53 1   
    57    29    54 1   
    58    29    55 1   
    59    29    56 1   
@<TRIPOS>SUBSTRUCTURE
     1 VX7         1 TEMP              0 ****  ****    0 ROOT
