@<TRIPOS>MOLECULE
VX8
   50    54     1     0     0
SMALL
No Charge or Current Charge


@<TRIPOS>ATOM
      1 C1         166.2700   167.5330   147.4350 c3         1 VX8      -0.039800
      2 C10        165.4850   164.8410   144.2640 ca         1 VX8      -0.099000
      3 C11        162.3010   167.1990   145.8610 ca         1 VX8       0.457900
      4 C12        159.7870   167.2550   145.6160 c          1 VX8       0.646100
      5 C13        158.7420   166.8360   144.5970 cx         1 VX8      -0.188700
      6 C14        158.4090   165.3730   144.6850 ca         1 VX8      -0.052300
      7 C15        157.4320   164.9270   145.6040 ca         1 VX8      -0.063000
      8 C16        157.1530   163.5560   145.6630 ca         1 VX8       0.049100
      9 C17        157.8000   162.6550   144.8630 ca         1 VX8       0.055100
     10 C18        158.7750   163.0590   143.9440 ca         1 VX8      -0.071000
     11 C19        159.0790   164.4340   143.8590 ca         1 VX8      -0.095000
     12 C2         164.8620   167.4410   146.8510 ca         1 VX8      -0.126300
     13 C20        156.3720   161.5460   146.1250 c5         1 VX8       0.595000
     14 C21        158.7520   167.5460   143.2550 cx         1 VX8      -0.092400
     15 C22        157.6590   167.8420   144.2520 cx         1 VX8      -0.092400
     16 C23        162.4960   167.8860   147.0720 ca         1 VX8      -0.178000
     17 C24        163.7980   168.0050   147.5790 ca         1 VX8      -0.074000
     18 C3         164.5730   166.7840   145.6160 cp         1 VX8       0.469500
     19 C4         165.6270   166.1650   144.7460 cp         1 VX8      -0.199500
     20 C5         166.7820   166.8940   144.3580 ca         1 VX8      -0.064000
     21 C6         167.7830   166.3230   143.5360 ca         1 VX8      -0.144600
     22 C7         169.0130   167.1240   143.1380 c          1 VX8       0.715600
     23 C8         167.6110   164.9940   143.0880 ca         1 VX8      -0.071000
     24 C9         166.4680   164.2620   143.4480 ca         1 VX8      -0.156000
     25 F1         155.1460   161.0700   145.6700 f          1 VX8      -0.085000
     26 F2         156.7350   160.8070   147.2480 f          1 VX8      -0.085000
     27 N1         163.3070   166.6610   145.1540 nb         1 VX8      -0.728000
     28 O1         169.1270   168.2680   143.5540 o          1 VX8      -0.719000
     29 O2         169.8470   166.5960   142.4160 o          1 VX8      -0.719000
     30 O3         159.4860   167.7740   146.6830 o          1 VX8      -0.592100
     31 O4         157.3870   161.3800   145.0760 os         1 VX8      -0.353100
     32 O5         156.2480   162.9650   146.4860 os         1 VX8      -0.355100
     33 H1         166.8010   168.4100   147.0480 hc         1 VX8       0.048367
     34 H2         166.2440   167.6200   148.5270 hc         1 VX8       0.048367
     35 H3         166.8640   166.6420   147.1990 hc         1 VX8       0.048367
     36 H4         164.6080   164.2570   144.5340 ha         1 VX8       0.094000
     37 H5         156.9080   165.6250   146.2520 ha         1 VX8       0.147000
     38 H6         159.2820   162.3310   143.3150 ha         1 VX8       0.147000
     39 H7         159.8340   164.7710   143.1530 ha         1 VX8       0.135000
     40 H8         159.4990   168.3180   143.0830 hc         1 VX8       0.084200
     41 H9         158.4820   166.9750   142.3690 hc         1 VX8       0.084200
     42 H10        157.6760   168.8100   144.7480 hc         1 VX8       0.084200
     43 H11        156.6630   167.4660   144.0320 hc         1 VX8       0.084200
     44 H12        161.6680   168.3190   147.6210 ha         1 VX8       0.136000
     45 H13        163.9750   168.5200   148.5220 ha         1 VX8       0.109000
     46 H14        166.8910   167.9230   144.6930 ha         1 VX8       0.130000
     47 H15        168.3600   164.5240   142.4540 ha         1 VX8       0.127000
     48 H16        166.3450   163.2410   143.0930 ha         1 VX8       0.088000
     49 H17        161.1610   166.5330   144.3240 hn         1 VX8       0.168000
     50 N2         161.0750   166.9810   145.2250 ns         1 VX8      -0.309900
@<TRIPOS>BOND
     1     1    12 1   
     2     1    33 1   
     3     1    34 1   
     4     1    35 1   
     5     2    19 ar  
     6     2    24 ar  
     7     2    36 1   
     8     3    16 ar  
     9     3    27 ar  
    10     3    50 1   
    11     4     5 1   
    12     4    30 2   
    13     4    50 1   
    14     5     6 1   
    15     5    14 1   
    16     5    15 1   
    17     6     7 ar  
    18     6    11 ar  
    19     7     8 ar  
    20     7    37 1   
    21     8     9 ar  
    22     8    32 1   
    23     9    10 ar  
    24     9    31 1   
    25    10    11 ar  
    26    10    38 1   
    27    11    39 1   
    28    12    17 ar  
    29    12    18 ar  
    30    13    25 1   
    31    13    26 1   
    32    13    31 1   
    33    13    32 1   
    34    14    15 1   
    35    14    40 1   
    36    14    41 1   
    37    15    42 1   
    38    15    43 1   
    39    16    17 ar  
    40    16    44 1   
    41    17    45 1   
    42    18    19 1   
    43    18    27 ar  
    44    19    20 ar  
    45    20    21 ar  
    46    20    46 1   
    47    21    22 1   
    48    21    23 ar  
    49    22    28 1   
    50    22    29 1   
    51    23    24 ar  
    52    23    47 1   
    53    24    48 1   
    54    49    50 1   
@<TRIPOS>SUBSTRUCTURE
     1 VX8         1 TEMP              0 ****  ****    0 ROOT
