@<TRIPOS>MOLECULE
VX8
   50    54     1     0     0
SMALL
bcc


@<TRIPOS>ATOM
      1 C1         166.1460   167.7530   147.2920 c3         1 VX8      -0.039800
      2 C10        165.1440   164.4860   144.8810 ca         1 VX8      -0.117000
      3 C11        162.1510   167.2260   145.9440 ca         1 VX8       0.523200
      4 C12        159.8030   167.7450   145.3740 c          1 VX8       0.713100
      5 C13        158.6130   167.1600   144.6670 cx         1 VX8      -0.188700
      6 C14        158.5580   165.6750   144.5130 ca         1 VX8      -0.052300
      7 C15        158.1110   164.9110   145.6020 ca         1 VX8      -0.081000
      8 C16        158.0950   163.5540   145.4310 ca         1 VX8       0.049100
      9 C17        158.4960   162.9470   144.2590 ca         1 VX8       0.055100
     10 C18        158.9390   163.6640   143.1800 ca         1 VX8      -0.089000
     11 C19        158.9620   165.0540   143.3350 ca         1 VX8      -0.113000
     12 C2         164.7440   167.5800   146.7870 ca         1 VX8      -0.191600
     13 C20        157.8500   161.3800   145.6640 c5         1 VX8       0.791200
     14 C21        158.0410   168.0330   143.5720 cx         1 VX8      -0.092400
     15 C22        157.3110   167.8930   144.8570 cx         1 VX8      -0.092400
     16 C23        162.3950   168.1590   146.9470 ca         1 VX8      -0.261300
     17 C24        163.7050   168.3080   147.3610 ca         1 VX8      -0.092000
     18 C3         164.3830   166.6830   145.7760 cp         1 VX8       0.534800
     19 C4         165.3700   165.8520   145.0480 cp         1 VX8      -0.199500
     20 C5         166.4970   166.4250   144.4650 ca         1 VX8      -0.082000
     21 C6         167.3970   165.6680   143.7200 ca         1 VX8      -0.144600
     22 C7         168.6060   166.3300   143.0620 c          1 VX8       0.926200
     23 C8         167.1610   164.3030   143.5800 ca         1 VX8      -0.089000
     24 C9         166.0440   163.7160   144.1600 ca         1 VX8      -0.174000
     25 F1         156.6750   160.7510   145.5890 f          1 VX8      -0.206300
     26 F2         158.6570   160.5790   146.3610 f          1 VX8      -0.206300
     27 N1         163.1180   166.5110   145.3950 nb         1 VX8      -0.728000
     28 O1         168.7440   167.5520   143.2580 o          1 VX8      -0.824300
     29 O2         169.3430   165.5880   142.3850 o          1 VX8      -0.824300
     30 O3         159.7980   168.8810   145.8130 o          1 VX8      -0.592100
     31 O4         158.3560   161.5940   144.4090 os         1 VX8      -0.329900
     32 O5         157.7040   162.5800   146.3080 os         1 VX8      -0.331900
     33 H1         166.7020   168.4880   146.7070 hc         1 VX8       0.048367
     34 H2         166.1350   168.1070   148.3230 hc         1 VX8       0.048367
     35 H3         166.7120   166.8220   147.2620 hc         1 VX8       0.048367
     36 H4         164.2670   164.0270   145.3190 ha         1 VX8       0.112000
     37 H5         157.7880   165.3780   146.5230 ha         1 VX8       0.165000
     38 H6         159.2540   163.1920   142.2590 ha         1 VX8       0.165000
     39 H7         159.3060   165.6620   142.5080 ha         1 VX8       0.153000
     40 H8         158.5450   168.9680   143.3630 hc         1 VX8       0.084200
     41 H9         157.6540   167.5250   142.6980 hc         1 VX8       0.084200
     42 H10        157.3000   168.7330   145.5380 hc         1 VX8       0.084200
     43 H11        156.4180   167.2830   144.8720 hc         1 VX8       0.084200
     44 H12        161.6020   168.7250   147.4090 ha         1 VX8       0.154000
     45 H13        163.9240   169.0010   148.1640 ha         1 VX8       0.127000
     46 H14        166.6710   167.4880   144.5610 ha         1 VX8       0.148000
     47 H15        167.8530   163.6990   143.0090 ha         1 VX8       0.145000
     48 H16        165.8690   162.6540   144.0450 ha         1 VX8       0.106000
     49 H17        160.8500   166.0560   144.9270 hn         1 VX8       0.334500
     50 N2         160.8810   166.9200   145.4490 ns         1 VX8      -0.543400
@<TRIPOS>BOND
     1     1    12 1   
     2     1    33 1   
     3     1    34 1   
     4     1    35 1   
     5     2    19 ar  
     6     2    24 ar  
     7     2    36 1   
     8     3    16 ar  
     9     3    27 ar  
    10     3    50 1   
    11     4     5 1   
    12     4    30 2   
    13     4    50 1   
    14     5     6 1   
    15     5    14 1   
    16     5    15 1   
    17     6     7 ar  
    18     6    11 ar  
    19     7     8 ar  
    20     7    37 1   
    21     8     9 ar  
    22     8    32 1   
    23     9    10 ar  
    24     9    31 1   
    25    10    11 ar  
    26    10    38 1   
    27    11    39 1   
    28    12    17 ar  
    29    12    18 ar  
    30    13    25 1   
    31    13    26 1   
    32    13    31 1   
    33    13    32 1   
    34    14    15 1   
    35    14    40 1   
    36    14    41 1   
    37    15    42 1   
    38    15    43 1   
    39    16    17 ar  
    40    16    44 1   
    41    17    45 1   
    42    18    19 1   
    43    18    27 ar  
    44    19    20 ar  
    45    20    21 ar  
    46    20    46 1   
    47    21    22 1   
    48    21    23 ar  
    49    22    28 1   
    50    22    29 1   
    51    23    24 ar  
    52    23    47 1   
    53    24    48 1   
    54    49    50 1   
@<TRIPOS>SUBSTRUCTURE
     1 VX8         1 TEMP              0 ****  ****    0 ROOT
