@<TRIPOS>MOLECULE
VX9
   90    91     1     0     0
SMALL
abcg2


@<TRIPOS>ATOM
      1 CAA        179.6200   158.7850   161.1410 c3         1 VX9      -0.086100
      2 CAB        179.4230   158.7970   162.6530 c3         1 VX9      -0.060700
      3 CAC        178.6690   157.5550   163.1210 c3         1 VX9      -0.086100
      4 CAD        178.7560   160.0880   163.1400 c3         1 VX9      -0.070400
      5 CAE        177.2810   160.2750   162.7280 c3         1 VX9      -0.073400
      6 CAF        176.2780   160.2320   163.8960 c3         1 VX9      -0.074400
      7 CAG        175.1410   161.2790   163.8360 c3         1 VX9      -0.054700
      8 CAH        173.7820   160.5790   163.8580 c3         1 VX9      -0.086100
      9 CAI        175.2350   162.3460   164.9370 c3         1 VX9      -0.039700
     10 CAJ        176.6790   162.9250   165.0660 c3         1 VX9      -0.075400
     11 CAK        176.9290   164.2620   165.8320 c3         1 VX9      -0.064400
     12 CAL        176.1840   164.4020   167.1620 c3         1 VX9      -0.086400
     13 CAM        174.2860   163.5530   164.8120 c3         1 VX9      -0.097700
     14 CAN        174.4600   164.3380   163.5110 c3         1 VX9      -0.079100
     15 CAO        172.7960   163.4820   165.1800 c3         1 VX9      -0.051400
     16 CAP        172.3790   164.7700   165.9070 c3         1 VX9      -0.108100
     17 CAQ        174.7310   165.7380   168.6750 c6         1 VX9      -0.071400
     18 CAR        176.0720   165.7450   167.9160 c6         1 VX9      -0.056700
     19 CAS        176.3550   167.0190   167.1270 c6         1 VX9      -0.060400
     20 CAT        176.1200   168.2870   167.9840 c6         1 VX9      -0.071400
     21 CAU        175.5470   167.9770   169.3690 c6         1 VX9      -0.050700
     22 CAV        175.3120   169.2290   170.2010 c6         1 VX9      -0.090400
     23 CAW        174.2800   167.1050   169.2370 c6         1 VX9      -0.033000
     24 CAX        173.2970   167.7250   168.2290 c3         1 VX9      -0.082100
     25 CAY        173.5180   166.9280   170.5820 c6         1 VX9      -0.057400
     26 CAZ        173.7410   167.9590   171.7130 c6         1 VX9      -0.076400
     27 CBA        175.0140   168.7860   171.6170 c6         1 VX9       0.179300
     28 CBE        175.4850   171.5650   174.0280 c3         1 VX9      -0.110400
     29 CBF        175.7280   172.8610   173.2390 c3         1 VX9      -0.206400
     30 CBG        177.2100   173.0300   172.8480 c          1 VX9       0.717000
     31 OBB        174.8390   169.9200   172.4850 os         1 VX9      -0.466100
     32 OBD        176.9780   169.8980   173.1530 o          1 VX9      -0.477000
     33 OBH        177.4860   172.9900   171.6330 o          1 VX9      -0.731500
     34 OBI        178.0070   173.1790   173.7970 o          1 VX9      -0.731500
     35 H1         180.1630   159.6700   160.8040 hc         1 VX9       0.030533
     36 H2         180.1890   157.9080   160.8260 hc         1 VX9       0.030533
     37 H3         178.6660   158.7590   160.6090 hc         1 VX9       0.030533
     38 H4         180.4160   158.7650   163.1160 hc         1 VX9       0.040700
     39 H5         178.5480   157.5480   164.2060 hc         1 VX9       0.030533
     40 H6         177.6720   157.4950   162.6780 hc         1 VX9       0.030533
     41 H7         179.2020   156.6440   162.8410 hc         1 VX9       0.030533
     42 H8         178.8340   160.1180   164.2310 hc         1 VX9       0.038700
     43 H9         179.3470   160.9360   162.7800 hc         1 VX9       0.038700
     44 H10        177.1750   161.2210   162.1910 hc         1 VX9       0.036700
     45 H11        177.0040   159.5110   161.9970 hc         1 VX9       0.036700
     46 H12        175.8300   159.2350   163.9440 hc         1 VX9       0.037200
     47 H13        176.8310   160.3270   164.8320 hc         1 VX9       0.037200
     48 H14        175.2100   161.8050   162.8760 hc         1 VX9       0.045700
     49 H15        172.9540   161.2770   163.7330 hc         1 VX9       0.030367
     50 H16        173.7120   159.8450   163.0540 hc         1 VX9       0.030367
     51 H17        173.6300   160.0500   164.8020 hc         1 VX9       0.030367
     52 H18        174.9790   161.8650   165.8930 hc         1 VX9       0.042700
     53 H19        177.3230   162.1720   165.5230 hc         1 VX9       0.033700
     54 H20        177.0780   163.0640   164.0550 hc         1 VX9       0.033700
     55 H21        178.0010   164.2640   166.0490 hc         1 VX9       0.038200
     56 H22        176.7680   165.1260   165.1830 hc         1 VX9       0.038200
     57 H23        174.7800   164.0980   165.5950 hc         1 VX9       0.069700
     58 H24        176.6120   163.6670   167.8510 hc         1 VX9       0.037200
     59 H25        175.1390   164.0890   167.0350 hc         1 VX9       0.037200
     60 H26        173.9630   165.3070   163.5730 hc         1 VX9       0.028700
     61 H27        175.5060   164.5310   163.2730 hc         1 VX9       0.028700
     62 H28        174.0220   163.8080   162.6610 hc         1 VX9       0.028700
     63 H29        172.2100   163.4440   164.2570 hc         1 VX9       0.033200
     64 H30        172.5390   162.5730   165.7320 hc         1 VX9       0.033200
     65 H31        171.3700   164.8230   166.3140 hc         1 VX9       0.035700
     66 H32        173.9290   165.3200   168.0660 hc         1 VX9       0.033700
     67 H33        172.4050   165.4960   165.0870 hc         1 VX9       0.035700
     68 H34        173.0950   165.2130   166.5920 hc         1 VX9       0.035700
     69 H35        174.8950   165.0200   169.4860 hc         1 VX9       0.033700
     70 H36        176.8340   165.7170   168.7020 hc         1 VX9       0.043700
     71 H37        177.3980   166.9830   166.8060 hc         1 VX9       0.032200
     72 H38        175.7630   167.0610   166.2080 hc         1 VX9       0.032200
     73 H39        177.0500   168.8500   168.0940 hc         1 VX9       0.045700
     74 H40        175.4320   168.9600   167.4700 hc         1 VX9       0.045700
     75 H41        176.2960   167.3830   169.9100 hc         1 VX9       0.049700
     76 H42        176.2060   169.8610   170.1860 hc         1 VX9       0.069200
     77 H43        174.4880   169.8250   169.7970 hc         1 VX9       0.069200
     78 H44        172.9690   168.7220   168.5310 hc         1 VX9       0.029367
     79 H45        173.7040   167.7970   167.2200 hc         1 VX9       0.029367
     80 H46        172.4040   167.1000   168.1630 hc         1 VX9       0.029367
     81 H47        172.4510   166.9580   170.3540 hc         1 VX9       0.028200
     82 H48        173.6910   165.9240   170.9710 hc         1 VX9       0.028200
     83 H49        172.8880   168.6410   171.7520 hc         1 VX9       0.042700
     84 H50        173.7510   167.4320   172.6690 hc         1 VX9       0.042700
     85 H51        175.8620   168.1950   171.9740 h1         1 VX9       0.058700
     86 H52        174.4350   171.5030   174.3170 hc         1 VX9       0.049700
     87 H53        176.0860   171.5710   174.9370 hc         1 VX9       0.049700
     88 H54        175.0810   172.8760   172.3590 hc         1 VX9       0.024200
     89 H55        175.4210   173.6920   173.8790 hc         1 VX9       0.024200
     90 CBC        175.8670   170.3680   173.2010 c          1 VX9       0.601100
@<TRIPOS>BOND
     1     1     2 1   
     2     1    35 1   
     3     1    36 1   
     4     1    37 1   
     5     2     3 1   
     6     2     4 1   
     7     2    38 1   
     8     3    39 1   
     9     3    40 1   
    10     3    41 1   
    11     4     5 1   
    12     4    42 1   
    13     4    43 1   
    14     5     6 1   
    15     5    44 1   
    16     5    45 1   
    17     6     7 1   
    18     6    46 1   
    19     6    47 1   
    20     7     8 1   
    21     7     9 1   
    22     7    48 1   
    23     8    49 1   
    24     8    50 1   
    25     8    51 1   
    26     9    10 1   
    27     9    13 1   
    28     9    52 1   
    29    10    11 1   
    30    10    53 1   
    31    10    54 1   
    32    11    12 1   
    33    11    55 1   
    34    11    56 1   
    35    12    18 1   
    36    12    58 1   
    37    12    59 1   
    38    13    14 1   
    39    13    15 1   
    40    13    57 1   
    41    14    60 1   
    42    14    61 1   
    43    14    62 1   
    44    15    16 1   
    45    15    63 1   
    46    15    64 1   
    47    16    65 1   
    48    16    67 1   
    49    16    68 1   
    50    17    18 1   
    51    17    23 1   
    52    17    66 1   
    53    17    69 1   
    54    18    19 1   
    55    18    70 1   
    56    19    20 1   
    57    19    71 1   
    58    19    72 1   
    59    20    21 1   
    60    20    73 1   
    61    20    74 1   
    62    21    22 1   
    63    21    23 1   
    64    21    75 1   
    65    22    27 1   
    66    22    76 1   
    67    22    77 1   
    68    23    24 1   
    69    23    25 1   
    70    24    78 1   
    71    24    79 1   
    72    24    80 1   
    73    25    26 1   
    74    25    81 1   
    75    25    82 1   
    76    26    27 1   
    77    26    83 1   
    78    26    84 1   
    79    27    31 1   
    80    27    85 1   
    81    28    29 1   
    82    28    86 1   
    83    28    87 1   
    84    28    90 1   
    85    29    30 1   
    86    29    88 1   
    87    29    89 1   
    88    30    33 1   
    89    30    34 1   
    90    31    90 1   
    91    32    90 2   
@<TRIPOS>SUBSTRUCTURE
     1 VX9         1 TEMP              0 ****  ****    0 ROOT
