@<TRIPOS>MOLECULE
VX9
   90    91     1     0     0
SMALL
No Charge or Current Charge


@<TRIPOS>ATOM
      1 CAA        178.7170   157.7010   162.7520 c3         1 VX9      -0.086100
      2 CAB        178.8850   158.4610   164.0880 c3         1 VX9      -0.060700
      3 CAC        177.8510   158.0060   165.1470 c3         1 VX9      -0.086100
      4 CAD        178.9820   160.0070   163.9080 c3         1 VX9      -0.070400
      5 CAE        177.9000   160.7240   163.0540 c3         1 VX9      -0.073400
      6 CAF        176.4480   160.6460   163.5910 c3         1 VX9      -0.074400
      7 CAG        175.4650   161.6950   162.9640 c3         1 VX9      -0.054700
      8 CAH        174.1620   160.9710   162.5300 c3         1 VX9      -0.086100
      9 CAI        175.2340   162.9650   163.8890 c3         1 VX9      -0.039700
     10 CAJ        176.5980   163.6440   164.2730 c3         1 VX9      -0.075400
     11 CAK        176.5530   164.8360   165.3020 c3         1 VX9      -0.064400
     12 CAL        175.7790   164.6100   166.6520 c3         1 VX9      -0.086400
     13 CAM        174.1970   164.0320   163.3510 c3         1 VX9      -0.097700
     14 CAN        174.4890   164.5040   161.9020 c3         1 VX9      -0.079100
     15 CAO        172.6970   163.6720   163.5910 c3         1 VX9      -0.051400
     16 CAP        171.7380   164.8800   163.5270 c3         1 VX9      -0.108100
     17 CAQ        175.2740   165.3280   169.0630 c6         1 VX9      -0.071400
     18 CAR        175.8840   165.7680   167.6910 c6         1 VX9      -0.056700
     19 CAS        175.2550   167.0970   167.1910 c6         1 VX9      -0.060400
     20 CAT        175.4240   168.2600   168.2130 c6         1 VX9      -0.071400
     21 CAU        175.7500   167.7780   169.6590 c6         1 VX9      -0.050700
     22 CAV        175.6020   168.9390   170.6870 c6         1 VX9      -0.090400
     23 CAW        174.9220   166.5040   170.0520 c6         1 VX9      -0.033000
     24 CAX        173.3740   166.7720   169.9930 c3         1 VX9      -0.082100
     25 CAY        175.3160   166.0840   171.5070 c6         1 VX9      -0.057400
     26 CAZ        175.1600   167.2350   172.5370 c6         1 VX9      -0.076400
     27 CBA        175.9800   168.4800   172.1220 c6         1 VX9       0.179300
     28 CBE        176.1030   171.6460   174.1840 c3         1 VX9      -0.110400
     29 CBF        175.1190   172.6940   173.5890 c3         1 VX9      -0.206400
     30 CBG        175.8410   173.6440   172.6170 c          1 VX9       0.717000
     31 OBB        175.7530   169.5350   173.0760 os         1 VX9      -0.466100
     32 OBD        177.5940   170.7660   172.4650 o          1 VX9      -0.477000
     33 OBH        175.8450   173.3580   171.4300 o          1 VX9      -0.731500
     34 OBI        176.4010   174.6250   173.0810 o          1 VX9      -0.731500
     35 H1         179.4850   158.0080   162.0320 hc         1 VX9       0.030533
     36 H2         178.8140   156.6200   162.9100 hc         1 VX9       0.030533
     37 H3         177.7320   157.8910   162.3100 hc         1 VX9       0.030533
     38 H4         179.8600   158.1560   164.4880 hc         1 VX9       0.040700
     39 H5         177.9500   158.5940   166.0670 hc         1 VX9       0.030533
     40 H6         176.8220   158.0980   164.7850 hc         1 VX9       0.030533
     41 H7         178.0130   156.9520   165.4040 hc         1 VX9       0.030533
     42 H8         179.0190   160.4790   164.8970 hc         1 VX9       0.038700
     43 H9         179.9530   160.2240   163.4450 hc         1 VX9       0.038700
     44 H10        178.2010   161.7740   162.9630 hc         1 VX9       0.036700
     45 H11        177.9210   160.3300   162.0300 hc         1 VX9       0.036700
     46 H12        176.0860   159.6340   163.3840 hc         1 VX9       0.037200
     47 H13        176.4430   160.7390   164.6840 hc         1 VX9       0.037200
     48 H14        175.9280   162.0510   162.0360 hc         1 VX9       0.045700
     49 H15        173.6030   161.5660   161.8020 hc         1 VX9       0.030367
     50 H16        174.3840   160.0240   162.0240 hc         1 VX9       0.030367
     51 H17        173.5220   160.7550   163.3940 hc         1 VX9       0.030367
     52 H18        174.8220   162.5790   164.8300 hc         1 VX9       0.042700
     53 H19        177.2550   162.8980   164.7320 hc         1 VX9       0.033700
     54 H20        177.1090   163.9830   163.3650 hc         1 VX9       0.033700
     55 H21        177.5900   165.0880   165.5550 hc         1 VX9       0.038200
     56 H22        176.1640   165.7250   164.7970 hc         1 VX9       0.038200
     57 H23        174.3340   164.9230   163.9680 hc         1 VX9       0.069700
     58 H24        176.1620   163.6860   167.1030 hc         1 VX9       0.037200
     59 H25        174.7230   164.4210   166.4260 hc         1 VX9       0.037200
     60 H26        173.8940   165.3890   161.6500 hc         1 VX9       0.028700
     61 H27        175.5440   164.7780   161.7820 hc         1 VX9       0.028700
     62 H28        174.2550   163.7230   161.1710 hc         1 VX9       0.028700
     63 H29        172.3430   162.9370   162.8650 hc         1 VX9       0.033200
     64 H30        172.5920   163.2120   164.5820 hc         1 VX9       0.033200
     65 H31        170.7170   164.5650   163.7730 hc         1 VX9       0.035700
     66 H32        174.3750   164.7200   168.8870 hc         1 VX9       0.033700
     67 H33        171.7200   165.3200   162.5230 hc         1 VX9       0.035700
     68 H34        172.0360   165.6550   164.2430 hc         1 VX9       0.035700
     69 H35        175.9870   164.6360   169.5320 hc         1 VX9       0.033700
     70 H36        176.9600   165.9390   167.8390 hc         1 VX9       0.043700
     71 H37        175.7030   167.4050   166.2380 hc         1 VX9       0.032200
     72 H38        174.1890   166.9380   166.9810 hc         1 VX9       0.032200
     73 H39        176.2300   168.9250   167.8730 hc         1 VX9       0.045700
     74 H40        174.5120   168.8720   168.2090 hc         1 VX9       0.045700
     75 H41        176.8120   167.4930   169.6720 hc         1 VX9       0.049700
     76 H42        176.2490   169.7710   170.3820 hc         1 VX9       0.069200
     77 H43        174.5780   169.3350   170.6810 hc         1 VX9       0.069200
     78 H44        173.0650   167.6230   170.6080 hc         1 VX9       0.029367
     79 H45        173.0240   166.9720   168.9750 hc         1 VX9       0.029367
     80 H46        172.8120   165.9010   170.3520 hc         1 VX9       0.029367
     81 H47        174.7160   165.2210   171.8280 hc         1 VX9       0.028200
     82 H48        176.3620   165.7480   171.5250 hc         1 VX9       0.028200
     83 H49        174.1020   167.5020   172.6590 hc         1 VX9       0.042700
     84 H50        175.5010   166.8870   173.5220 hc         1 VX9       0.042700
     85 H51        177.0460   168.2070   172.1440 h1         1 VX9       0.058700
     86 H52        175.5440   171.1090   174.9600 hc         1 VX9       0.049700
     87 H53        176.9650   172.1620   174.6230 hc         1 VX9       0.049700
     88 H54        174.3340   172.1270   173.0730 hc         1 VX9       0.024200
     89 H55        174.7520   173.2580   174.4550 hc         1 VX9       0.024200
     90 CBC        176.5840   170.6240   173.1410 c          1 VX9       0.601100
@<TRIPOS>BOND
     1     1     2 1   
     2     1    35 1   
     3     1    36 1   
     4     1    37 1   
     5     2     3 1   
     6     2     4 1   
     7     2    38 1   
     8     3    39 1   
     9     3    40 1   
    10     3    41 1   
    11     4     5 1   
    12     4    42 1   
    13     4    43 1   
    14     5     6 1   
    15     5    44 1   
    16     5    45 1   
    17     6     7 1   
    18     6    46 1   
    19     6    47 1   
    20     7     8 1   
    21     7     9 1   
    22     7    48 1   
    23     8    49 1   
    24     8    50 1   
    25     8    51 1   
    26     9    10 1   
    27     9    13 1   
    28     9    52 1   
    29    10    11 1   
    30    10    53 1   
    31    10    54 1   
    32    11    12 1   
    33    11    55 1   
    34    11    56 1   
    35    12    18 1   
    36    12    58 1   
    37    12    59 1   
    38    13    14 1   
    39    13    15 1   
    40    13    57 1   
    41    14    60 1   
    42    14    61 1   
    43    14    62 1   
    44    15    16 1   
    45    15    63 1   
    46    15    64 1   
    47    16    65 1   
    48    16    67 1   
    49    16    68 1   
    50    17    18 1   
    51    17    23 1   
    52    17    66 1   
    53    17    69 1   
    54    18    19 1   
    55    18    70 1   
    56    19    20 1   
    57    19    71 1   
    58    19    72 1   
    59    20    21 1   
    60    20    73 1   
    61    20    74 1   
    62    21    22 1   
    63    21    23 1   
    64    21    75 1   
    65    22    27 1   
    66    22    76 1   
    67    22    77 1   
    68    23    24 1   
    69    23    25 1   
    70    24    78 1   
    71    24    79 1   
    72    24    80 1   
    73    25    26 1   
    74    25    81 1   
    75    25    82 1   
    76    26    27 1   
    77    26    83 1   
    78    26    84 1   
    79    27    31 1   
    80    27    85 1   
    81    28    29 1   
    82    28    86 1   
    83    28    87 1   
    84    28    90 1   
    85    29    30 1   
    86    29    88 1   
    87    29    89 1   
    88    30    33 1   
    89    30    34 1   
    90    31    90 1   
    91    32    90 2   
@<TRIPOS>SUBSTRUCTURE
     1 VX9         1 TEMP              0 ****  ****    0 ROOT
