@<TRIPOS>MOLECULE
VXA
    8     7     1     0     0
SMALL
No Charge or Current Charge


@<TRIPOS>ATOM
      1 P1           2.3780    -0.0110    -0.4080 p5         1 VXA       1.259400
      2 O1           2.8610     1.2550     0.2270 o          1 VXA      -0.834500
      3 O2           2.1600     0.1070    -1.8840 o          1 VXA      -0.834500
      4 C1           0.8390    -0.5810     0.4130 c3         1 VXA      -0.461100
      5 H11          1.0230    -0.7170     1.4840 hc         1 VXA       0.033367
      6 H12          0.0440     0.1600     0.2740 hc         1 VXA       0.033367
      7 H13          0.5230    -1.5360    -0.0210 hc         1 VXA       0.033367
      8 HP1          3.2320    -1.1030    -0.0980 hp         1 VXA      -0.228400
@<TRIPOS>BOND
     1     1     2 1   
     2     1     3 1   
     3     1     4 1   
     4     1     8 1   
     5     4     5 1   
     6     4     6 1   
     7     4     7 1   
@<TRIPOS>SUBSTRUCTURE
     1 VXA         1 TEMP              0 ****  ****    0 ROOT
