@<TRIPOS>MOLECULE
VXA
    8     7     1     0     0
SMALL
bcc


@<TRIPOS>ATOM
      1 P1           2.3700     0.0110    -0.4170 p5         1 VXA       1.101600
      2 O1           2.8740     1.2520     0.2880 o          1 VXA      -0.834500
      3 O2           2.1430     0.0480    -1.9140 o          1 VXA      -0.834500
      4 C1           0.8480    -0.5770     0.4080 c3         1 VXA      -0.303300
      5 H11          1.0070    -0.7190     1.4770 hc         1 VXA       0.033367
      6 H12          0.0510     0.1570     0.2790 hc         1 VXA       0.033367
      7 H13          0.5100    -1.5230    -0.0170 hc         1 VXA       0.033367
      8 HP1          3.2580    -1.0750    -0.1170 hp         1 VXA      -0.228400
@<TRIPOS>BOND
     1     1     2 1   
     2     1     3 1   
     3     1     4 1   
     4     1     8 1   
     5     4     5 1   
     6     4     6 1   
     7     4     7 1   
@<TRIPOS>SUBSTRUCTURE
     1 VXA         1 TEMP              0 ****  ****    0 ROOT
