@<TRIPOS>MOLECULE
VXB
   25    25     1     0     0
SMALL
No Charge or Current Charge


@<TRIPOS>ATOM
      1 N1          -1.9560    11.3950   -34.2450 nb         1 VXB      -0.667000
      2 C7          -0.8580    11.5430   -35.0240 ca         1 VXB       0.381900
      3 C8          -2.6030    12.5130   -33.8410 ca         1 VXB       0.367900
      4 O1          -2.5840    16.1600   -34.0280 o          1 VXB      -0.602100
      5 C1          -5.8410    16.4930   -33.5370 c3         1 VXB       0.129600
      6 C5          -1.0470    13.9570   -35.0020 ca         1 VXB       0.002000
      7 C6          -0.3730    12.8000   -35.4230 ca         1 VXB      -0.082900
      8 C4          -2.1920    13.8150   -34.1890 ca         1 VXB      -0.201600
      9 C3          -2.9400    15.0310   -33.7200 c          1 VXB       0.615700
     10 C2          -4.9330    15.8920   -32.4310 c3         1 VXB       0.070000
     11 Br           1.1860    12.9380   -36.5260 br         1 VXB      -0.079100
     12 N           -4.0450    14.8250   -32.9210 ns         1 VXB      -0.493900
     13 O           -6.6090    15.4520   -34.1870 os         1 VXB      -0.460000
     14 C           -7.6320    14.8260   -33.3870 c3         1 VXB       0.138900
     15 H1          -0.3550    10.6280   -35.3350 h4         1 VXB       0.039100
     16 H2          -3.4790    12.3390   -33.2180 h4         1 VXB       0.028100
     17 H3          -5.2070    17.0030   -34.2730 h1         1 VXB       0.059700
     18 H4          -6.5030    17.2500   -33.0950 h1         1 VXB       0.059700
     19 H5          -0.6850    14.9390   -35.3020 ha         1 VXB       0.156000
     20 H6          -4.3160    16.6940   -32.0050 h1         1 VXB       0.063200
     21 H7          -5.5510    15.4940   -31.6160 h1         1 VXB       0.063200
     22 H8          -4.2930    13.8670   -32.7110 hn         1 VXB       0.320500
     23 H9          -8.2070    14.1160   -33.9960 h1         1 VXB       0.030700
     24 H10         -7.1970    14.2710   -32.5460 h1         1 VXB       0.030700
     25 H11         -8.3290    15.5750   -32.9890 h1         1 VXB       0.030700
@<TRIPOS>BOND
     1     1     2 ar  
     2     1     3 ar  
     3     2     7 ar  
     4     2    15 1   
     5     3     8 ar  
     6     3    16 1   
     7     4     9 2   
     8     5    10 1   
     9     5    13 1   
    10     5    17 1   
    11     5    18 1   
    12     6     7 ar  
    13     6     8 ar  
    14     6    19 1   
    15     7    11 1   
    16     8     9 1   
    17     9    12 1   
    18    10    12 1   
    19    10    20 1   
    20    10    21 1   
    21    12    22 1   
    22    13    14 1   
    23    14    23 1   
    24    14    24 1   
    25    14    25 1   
@<TRIPOS>SUBSTRUCTURE
     1 VXB         1 TEMP              0 ****  ****    0 ROOT
