@<TRIPOS>MOLECULE
VXB
   25    25     1     0     0
SMALL
abcg2


@<TRIPOS>ATOM
      1 N1          -2.2510    11.5610   -35.0650 nb         1 VXB      -0.667000
      2 C7          -0.9290    11.5960   -35.2220 ca         1 VXB       0.381900
      3 C8          -2.8710    12.6640   -34.6390 ca         1 VXB       0.367900
      4 O1          -2.4850    16.2120   -34.2230 o          1 VXB      -0.602100
      5 C1          -6.0020    16.2750   -33.6590 c3         1 VXB       0.129600
      6 C5          -0.8240    13.8990   -34.5470 ca         1 VXB       0.002000
      7 C6          -0.1900    12.7480   -34.9740 ca         1 VXB      -0.082900
      8 C4          -2.2030    13.8540   -34.3570 ca         1 VXB      -0.201600
      9 C3          -2.9100    15.0990   -33.9080 c          1 VXB       0.615700
     10 C2          -4.8550    15.9930   -32.6910 c3         1 VXB       0.070000
     11 BR           1.7000    12.7250   -35.2300 br         1 VXB      -0.079100
     12 N           -4.0010    14.9090   -33.1460 ns         1 VXB      -0.493900
     13 O           -6.8240    15.1440   -33.9100 os         1 VXB      -0.460000
     14 C           -7.6500    14.7730   -32.8150 c3         1 VXB       0.138900
     15 H1          -0.4430    10.6880   -35.5570 h4         1 VXB       0.039100
     16 H2          -3.9480    12.5980   -34.5450 h4         1 VXB       0.028100
     17 H3          -5.5960    16.5690   -34.6270 h1         1 VXB       0.059700
     18 H4          -6.6030    17.1040   -33.2640 h1         1 VXB       0.059700
     19 H5          -0.2790    14.8130   -34.3580 ha         1 VXB       0.156000
     20 H6          -4.2520    16.8940   -32.5900 h1         1 VXB       0.063200
     21 H7          -5.2340    15.7300   -31.7040 h1         1 VXB       0.063200
     22 H8          -4.2690    13.9700   -32.9030 hn         1 VXB       0.320500
     23 H9          -8.3210    13.9930   -33.1720 h1         1 VXB       0.030700
     24 H10         -7.0670    14.3800   -31.9760 h1         1 VXB       0.030700
     25 H11         -8.2420    15.6270   -32.4650 h1         1 VXB       0.030700
@<TRIPOS>BOND
     1     1     2 ar  
     2     1     3 ar  
     3     2     7 ar  
     4     2    15 1   
     5     3     8 ar  
     6     3    16 1   
     7     4     9 2   
     8     5    10 1   
     9     5    13 1   
    10     5    17 1   
    11     5    18 1   
    12     6     7 ar  
    13     6     8 ar  
    14     6    19 1   
    15     7    11 1   
    16     8     9 1   
    17     9    12 1   
    18    10    12 1   
    19    10    20 1   
    20    10    21 1   
    21    12    22 1   
    22    13    14 1   
    23    14    23 1   
    24    14    24 1   
    25    14    25 1   
@<TRIPOS>SUBSTRUCTURE
     1 VXB         1 TEMP              0 ****  ****    0 ROOT
