@<TRIPOS>MOLECULE
VXC
   15    15     1     0     0
SMALL
abcg2


@<TRIPOS>ATOM
      1 C1          27.4400    45.7190    69.6830 ca         1 VXC      -0.126000
      2 C2          28.1020    46.4510    70.6610 ca         1 VXC      -0.000900
      3 C3          27.9060    46.1900    72.0070 ca         1 VXC      -0.126000
      4 C4          27.0270    45.1810    72.3800 ca         1 VXC      -0.025000
      5 C5          26.3580    44.4430    71.4160 ca         1 VXC      -0.205500
      6 O1          23.8710    43.7130    71.5390 o          1 VXC      -0.690867
      7 C           26.5670    44.7160    70.0690 ca         1 VXC      -0.025000
      8 O           25.3920    42.9400    73.3150 o          1 VXC      -0.690867
      9 O2          25.5620    41.9990    71.0430 o          1 VXC      -0.690867
     10 S           25.1910    43.1560    71.8740 s6         1 VXC       1.262100
     11 BR          29.2930    47.8220    70.1430 br         1 VXC      -0.160100
     12 H1          27.5980    45.9210    68.6320 ha         1 VXC       0.108000
     13 H2          28.4270    46.7570    72.7670 ha         1 VXC       0.108000
     14 H3          26.8770    44.9760    73.4320 ha         1 VXC       0.131500
     15 H4          26.0580    44.1430    69.3040 ha         1 VXC       0.131500
@<TRIPOS>BOND
     1     1     2 ar  
     2     1     7 ar  
     3     1    12 1   
     4     2     3 ar  
     5     2    11 1   
     6     3     4 ar  
     7     3    13 1   
     8     4     5 ar  
     9     4    14 1   
    10     5     7 ar  
    11     5    10 1   
    12     6    10 1   
    13     7    15 1   
    14     8    10 1   
    15     9    10 1   
@<TRIPOS>SUBSTRUCTURE
     1 VXC         1 TEMP              0 ****  ****    0 ROOT
