@<TRIPOS>MOLECULE
VXC
   15    15     1     0     0
SMALL
No Charge or Current Charge


@<TRIPOS>ATOM
      1 C1          27.5150    45.6770    69.6690 ca         1 VXC      -0.126000
      2 C2          28.1290    46.4680    70.6520 ca         1 VXC      -0.000900
      3 C3          27.8490    46.2480    72.0090 ca         1 VXC      -0.126000
      4 C4          26.9540    45.2310    72.3870 ca         1 VXC      -0.025000
      5 C5          26.3360    44.4240    71.4070 ca         1 VXC      -0.205500
      6 O1          23.8740    43.8300    71.9040 o          1 VXC      -0.690867
      7 C           26.6190    44.6590    70.0440 ca         1 VXC      -0.025000
      8 O           25.6540    42.6950    73.2260 o          1 VXC      -0.690867
      9 O2          25.3100    42.1080    70.8200 o          1 VXC      -0.690867
     10 S           25.1460    43.0910    71.9030 s6         1 VXC       1.262100
     11 Br          29.3460    47.8510    70.1410 br         1 VXC      -0.160100
     12 H1          27.7280    45.8500    68.6170 ha         1 VXC       0.108000
     13 H2          28.3220    46.8640    72.7710 ha         1 VXC       0.108000
     14 H3          26.7410    45.0740    73.4430 ha         1 VXC       0.131500
     15 H4          26.1450    44.0560    69.2720 ha         1 VXC       0.131500
@<TRIPOS>BOND
     1     1     2 ar  
     2     1     7 ar  
     3     1    12 1   
     4     2     3 ar  
     5     2    11 1   
     6     3     4 ar  
     7     3    13 1   
     8     4     5 ar  
     9     4    14 1   
    10     5     7 ar  
    11     5    10 1   
    12     6    10 1   
    13     7    15 1   
    14     8    10 1   
    15     9    10 1   
@<TRIPOS>SUBSTRUCTURE
     1 VXC         1 TEMP              0 ****  ****    0 ROOT
