@<TRIPOS>MOLECULE
VXD
   24    24     1     0     0
SMALL
abcg2


@<TRIPOS>ATOM
      1 N1         -18.8580    34.8720   -67.0080 ns         1 VXD      -0.184000
      2 C4         -22.2400    36.6980   -68.6520 ca         1 VXD      -0.097000
      3 C5         -22.2870    35.3820   -68.2180 ca         1 VXD      -0.099000
      4 C6         -21.1500    34.7960   -67.6900 ca         1 VXD      -0.115000
      5 C7         -19.9650    35.5190   -67.5790 ca         1 VXD      -0.047000
      6 C8         -17.8180    34.3160   -67.6750 c          1 VXD       0.609100
      7 C1         -18.6510    37.6740   -67.8140 c3         1 VXD      -0.051800
      8 C2         -19.8960    36.8580   -67.9780 ca         1 VXD      -0.065300
      9 C3         -21.0550    37.4060   -68.5310 ca         1 VXD       0.118000
     10 C9         -17.8270    34.4880   -69.1810 c3         1 VXD       0.074800
     11 N2         -16.8460    33.6330   -69.8060 n8         1 VXD      -0.986200
     12 O1         -16.9210    33.7380   -67.0850 o          1 VXD      -0.579100
     13 CL1        -21.0330    39.0510   -69.0840 cl         1 VXD      -0.200000
     14 H7         -18.8730    34.7170   -66.0080 hn         1 VXD       0.163000
     15 H4         -23.1150    37.1680   -69.0800 ha         1 VXD       0.133000
     16 H5         -23.2040    34.8140   -68.2990 ha         1 VXD       0.125000
     17 H6         -21.1680    33.7660   -67.3600 ha         1 VXD       0.128000
     18 H3         -18.8640    38.6160   -67.3110 hc         1 VXD       0.055033
     19 H2         -17.9020    37.1410   -67.2330 hc         1 VXD       0.055033
     20 H1         -18.2130    37.9220   -68.7840 hc         1 VXD       0.055033
     21 H9         -18.8170    34.2350   -69.5670 h1         1 VXD       0.048700
     22 H8         -17.6950    35.5600   -69.3930 h1         1 VXD       0.048700
     23 H11        -16.8750    33.7730   -70.8060 hn         1 VXD       0.405500
     24 H12        -15.9150    33.8900   -69.5070 hn         1 VXD       0.405500
@<TRIPOS>BOND
     1     1     5 1   
     2     1     6 1   
     3     1    14 1   
     4     2     3 ar  
     5     2     9 ar  
     6     2    15 1   
     7     3     4 ar  
     8     3    16 1   
     9     4     5 ar  
    10     4    17 1   
    11     5     8 ar  
    12     6    10 1   
    13     6    12 2   
    14     7     8 1   
    15     7    18 1   
    16     7    19 1   
    17     7    20 1   
    18     8     9 ar  
    19     9    13 1   
    20    10    11 1   
    21    10    21 1   
    22    10    22 1   
    23    11    23 1   
    24    11    24 1   
@<TRIPOS>SUBSTRUCTURE
     1 VXD         1 TEMP              0 ****  ****    0 ROOT
