@<TRIPOS>MOLECULE
VXD
   24    24     1     0     0
SMALL
No Charge or Current Charge


@<TRIPOS>ATOM
      1 N1         -18.9390    34.7620   -67.0040 ns         1 VXD      -0.184000
      2 C4         -22.3080    36.7410   -68.6230 ca         1 VXD      -0.097000
      3 C5         -22.4040    35.4240   -68.1540 ca         1 VXD      -0.099000
      4 C6         -21.2740    34.7930   -67.6130 ca         1 VXD      -0.115000
      5 C7         -20.0420    35.4680   -67.5410 ca         1 VXD      -0.047000
      6 C8         -17.7630    34.3610   -67.6170 c          1 VXD       0.609100
      7 C1         -18.6420    37.6160   -67.8580 c3         1 VXD      -0.051800
      8 C2         -19.9420    36.8140   -67.9870 ca         1 VXD      -0.065300
      9 C3         -21.0890    37.4340   -68.5390 ca         1 VXD       0.118000
     10 C9         -17.7120    34.4900   -69.1830 c3         1 VXD       0.074800
     11 N2         -16.7240    33.6240   -69.9260 n8         1 VXD      -0.986200
     12 O1         -16.8360    33.8940   -66.9590 o          1 VXD      -0.579100
     13 Cl1        -21.0330    39.0940   -69.1380 cl         1 VXD      -0.200000
     14 H7         -18.9860    34.5820   -66.0090 hn         1 VXD       0.163000
     15 H4         -23.1810    37.2310   -69.0480 ha         1 VXD       0.133000
     16 H5         -23.3510    34.8910   -68.2140 ha         1 VXD       0.125000
     17 H6         -21.3540    33.7670   -67.2580 ha         1 VXD       0.128000
     18 H3         -18.8290    38.5950   -67.4000 hc         1 VXD       0.055033
     19 H2         -17.8930    37.1250   -67.2290 hc         1 VXD       0.055033
     20 H1         -18.1900    37.7920   -68.8410 hc         1 VXD       0.055033
     21 H9         -18.7160    34.2670   -69.5690 h1         1 VXD       0.048700
     22 H8         -17.4970    35.5410   -69.4160 h1         1 VXD       0.048700
     23 H11        -16.7100    33.8890   -70.9200 hn         1 VXD       0.405500
     24 H12        -15.7710    33.8380   -69.6020 hn         1 VXD       0.405500
@<TRIPOS>BOND
     1     1     5 1   
     2     1     6 1   
     3     1    14 1   
     4     2     3 ar  
     5     2     9 ar  
     6     2    15 1   
     7     3     4 ar  
     8     3    16 1   
     9     4     5 ar  
    10     4    17 1   
    11     5     8 ar  
    12     6    10 1   
    13     6    12 2   
    14     7     8 1   
    15     7    18 1   
    16     7    19 1   
    17     7    20 1   
    18     8     9 ar  
    19     9    13 1   
    20    10    11 1   
    21    10    21 1   
    22    10    22 1   
    23    11    23 1   
    24    11    24 1   
@<TRIPOS>SUBSTRUCTURE
     1 VXD         1 TEMP              0 ****  ****    0 ROOT
