@<TRIPOS>MOLECULE
VXE
   46    48     1     0     0
SMALL
No Charge or Current Charge


@<TRIPOS>ATOM
      1 C11        -14.1370    -8.8800    22.6740 ca         1 VXE      -0.072000
      2 C15        -12.6410   -12.8310    24.5360 c3         1 VXE      -0.085100
      3 C14        -13.6360   -11.8040    25.1070 c3         1 VXE      -0.028100
      4 C16        -12.6150    -9.4810    24.9490 ca         1 VXE      -0.128000
      5 C19        -10.5420    -3.8690    22.6470 c          1 VXE       0.718000
      6 C17        -12.4860    -8.2240    24.3320 ca         1 VXE      -0.072000
      7 C02        -16.5200    -4.4820    24.2180 c          1 VXE       0.569200
      8 C04        -15.0830    -4.1810    24.2560 cc         1 VXE      -0.332200
      9 C05        -14.4120    -3.5210    23.2400 cd         1 VXE       0.057600
     10 C06        -12.9250    -3.2660    23.3750 c3         1 VXE      -0.053200
     11 C07        -12.0480    -4.2590    22.5680 c3         1 VXE      -0.046300
     12 C09        -13.1420    -6.5600    22.4860 c          1 VXE       0.611700
     13 C10        -13.2480    -7.9050    23.1810 ca         1 VXE      -0.126600
     14 C12        -14.2620   -10.1350    23.2950 ca         1 VXE      -0.128000
     15 C13        -13.5030   -10.4420    24.4370 ca         1 VXE      -0.076300
     16 C22        -15.1880    -3.0870    22.0540 ca         1 VXE      -0.118800
     17 C23        -16.5670    -3.3660    22.0090 ca         1 VXE       0.093600
     18 C24        -17.3500    -2.9780    20.9100 ca         1 VXE      -0.185000
     19 C25        -16.7560    -2.3020    19.8320 ca         1 VXE      -0.067000
     20 C26        -15.3820    -2.0190    19.8610 ca         1 VXE      -0.158000
     21 C27        -14.5980    -2.4080    20.9620 ca         1 VXE      -0.031000
     22 N03        -17.1520    -4.0440    23.0880 ns         1 VXE      -0.378100
     23 N08        -12.2470    -5.6570    23.0260 ns         1 VXE      -0.452900
     24 O18        -13.8080    -6.2870    21.4950 o          1 VXE      -0.619100
     25 H1         -14.7380    -8.6680    21.7920 ha         1 VXE       0.126000
     26 H2         -12.7610   -13.7990    25.0370 hc         1 VXE       0.030367
     27 H3         -12.8100   -12.9760    23.4620 hc         1 VXE       0.030367
     28 H4         -11.6090   -12.4930    24.6820 hc         1 VXE       0.030367
     29 H5         -13.4710   -11.7120    26.1870 hc         1 VXE       0.040700
     30 H6         -14.6550   -12.1890    24.9840 hc         1 VXE       0.040700
     31 H7         -12.0200    -9.7070    25.8310 ha         1 VXE       0.103000
     32 H8         -11.7890    -7.5110    24.7650 ha         1 VXE       0.126000
     33 H9         -14.5710    -4.5250    25.1460 ha         1 VXE       0.200000
     34 H10        -12.6300    -3.3160    24.4300 hc         1 VXE       0.064200
     35 H11        -12.6910    -2.2410    23.0640 hc         1 VXE       0.064200
     36 H12        -12.3320    -4.1970    21.5110 h1         1 VXE       0.071700
     37 H13        -14.9510   -10.8690    22.8840 ha         1 VXE       0.103000
     38 H14        -18.4140    -3.1990    20.8880 ha         1 VXE       0.105000
     39 H15        -17.3590    -2.0000    18.9780 ha         1 VXE       0.102000
     40 H16        -14.9200    -1.4970    19.0260 ha         1 VXE       0.117000
     41 H17        -13.5360    -2.1760    20.9520 ha         1 VXE       0.158000
     42 H18        -18.1430    -4.2340    23.0310 hn         1 VXE       0.313500
     43 H19        -11.7040    -5.9710    23.8200 hn         1 VXE       0.299500
     44 O20         -9.9260    -4.1250    23.6730 o          1 VXE      -0.715500
     45 O21        -10.0180    -3.3980    21.6470 o          1 VXE      -0.715500
     46 O01        -17.1150    -5.0670    25.1080 o          1 VXE      -0.587000
@<TRIPOS>BOND
     1     1    13 ar  
     2     1    14 ar  
     3     1    25 1   
     4     2     3 1   
     5     2    26 1   
     6     2    27 1   
     7     2    28 1   
     8     3    15 1   
     9     3    29 1   
    10     3    30 1   
    11     4     6 ar  
    12     4    15 ar  
    13     4    31 1   
    14     5    11 1   
    15     5    44 1   
    16     5    45 1   
    17     6    13 ar  
    18     6    32 1   
    19     7     8 1   
    20     7    22 1   
    21     7    46 2   
    22     8     9 2   
    23     8    33 1   
    24     9    10 1   
    25     9    16 1   
    26    10    11 1   
    27    10    34 1   
    28    10    35 1   
    29    11    23 1   
    30    11    36 1   
    31    12    13 1   
    32    12    23 1   
    33    12    24 2   
    34    14    15 ar  
    35    14    37 1   
    36    16    17 ar  
    37    16    21 ar  
    38    17    18 ar  
    39    17    22 1   
    40    18    19 ar  
    41    18    38 1   
    42    19    20 ar  
    43    19    39 1   
    44    20    21 ar  
    45    20    40 1   
    46    21    41 1   
    47    22    42 1   
    48    23    43 1   
@<TRIPOS>SUBSTRUCTURE
     1 VXE         1 TEMP              0 ****  ****    0 ROOT
