@<TRIPOS>MOLECULE
VXE
   46    48     1     0     0
SMALL
abcg2


@<TRIPOS>ATOM
      1 C11        -12.4910    -9.3640    22.5080 ca         1 VXE      -0.072000
      2 C15        -12.9690   -13.1350    24.5750 c3         1 VXE      -0.085100
      3 C14        -13.2780   -11.8400    25.3090 c3         1 VXE      -0.028100
      4 C16        -13.5800    -9.3660    25.0430 ca         1 VXE      -0.128000
      5 C19        -10.9100    -4.2180    22.0140 c          1 VXE       0.718000
      6 C17        -13.4630    -8.1770    24.3440 ca         1 VXE      -0.072000
      7 C02        -16.5720    -4.0670    24.3990 c          1 VXE       0.569200
      8 C04        -15.1280    -3.9750    24.3140 cc         1 VXE      -0.332200
      9 C05        -14.4830    -3.4140    23.2670 cd         1 VXE       0.057600
     10 C06        -12.9860    -3.3850    23.2210 c3         1 VXE      -0.053200
     11 C07        -12.4100    -4.4940    22.3280 c3         1 VXE      -0.046300
     12 C09        -12.7750    -6.9120    22.2520 c          1 VXE       0.611700
     13 C10        -12.9080    -8.1600    23.0640 ca         1 VXE      -0.126600
     14 C12        -12.5980   -10.5510    23.2180 ca         1 VXE      -0.128000
     15 C13        -13.1440   -10.5760    24.4990 ca         1 VXE      -0.076300
     16 C22        -15.2510    -2.8680    22.1690 ca         1 VXE      -0.118800
     17 C23        -16.6520    -2.9370    22.2430 ca         1 VXE       0.093600
     18 C24        -17.4430    -2.4100    21.2170 ca         1 VXE      -0.185000
     19 C25        -16.8450    -1.8220    20.1240 ca         1 VXE      -0.067000
     20 C26        -15.4540    -1.7490    20.0310 ca         1 VXE      -0.158000
     21 C27        -14.6720    -2.2650    21.0420 ca         1 VXE      -0.031000
     22 N03        -17.2400    -3.5250    23.3330 ns         1 VXE      -0.378100
     23 N08        -12.6460    -5.7730    22.9510 ns         1 VXE      -0.452900
     24 O18        -12.8000    -6.9510    21.0270 o          1 VXE      -0.619100
     25 H1         -12.0700    -9.3780    21.5110 ha         1 VXE       0.126000
     26 H2         -13.1300   -13.9860    25.2350 hc         1 VXE       0.030367
     27 H3         -13.6110   -13.2670    23.7030 hc         1 VXE       0.030367
     28 H4         -11.9330   -13.1750    24.2380 hc         1 VXE       0.030367
     29 H5         -12.6280   -11.7590    26.1850 hc         1 VXE       0.040700
     30 H6         -14.2950   -11.8830    25.7100 hc         1 VXE       0.040700
     31 H7         -14.0270    -9.3570    26.0300 ha         1 VXE       0.103000
     32 H8         -13.8360    -7.2680    24.7990 ha         1 VXE       0.126000
     33 H9         -14.5710    -4.3840    25.1470 ha         1 VXE       0.200000
     34 H10        -12.5910    -3.4950    24.2350 hc         1 VXE       0.064200
     35 H11        -12.6340    -2.4220    22.8550 hc         1 VXE       0.064200
     36 H12        -12.9430    -4.4940    21.3750 h1         1 VXE       0.071700
     37 H13        -12.2510   -11.4650    22.7550 ha         1 VXE       0.103000
     38 H14        -18.5230    -2.4670    21.2900 ha         1 VXE       0.105000
     39 H15        -17.4630    -1.4170    19.3340 ha         1 VXE       0.102000
     40 H16        -14.9900    -1.2890    19.1690 ha         1 VXE       0.117000
     41 H17        -13.5950    -2.2080    20.9560 ha         1 VXE       0.158000
     42 H18        -18.2510    -3.5670    23.3640 hn         1 VXE       0.313500
     43 H19        -12.4120    -5.8460    23.9280 hn         1 VXE       0.299500
     44 O20        -10.0790    -5.0530    22.4010 o          1 VXE      -0.715500
     45 O21        -10.7040    -3.1590    21.3900 o          1 VXE      -0.715500
     46 O01        -17.1770    -4.5820    25.3320 o          1 VXE      -0.587000
@<TRIPOS>BOND
     1     1    13 ar  
     2     1    14 ar  
     3     1    25 1   
     4     2     3 1   
     5     2    26 1   
     6     2    27 1   
     7     2    28 1   
     8     3    15 1   
     9     3    29 1   
    10     3    30 1   
    11     4     6 ar  
    12     4    15 ar  
    13     4    31 1   
    14     5    11 1   
    15     5    44 1   
    16     5    45 1   
    17     6    13 ar  
    18     6    32 1   
    19     7     8 1   
    20     7    22 1   
    21     7    46 2   
    22     8     9 2   
    23     8    33 1   
    24     9    10 1   
    25     9    16 1   
    26    10    11 1   
    27    10    34 1   
    28    10    35 1   
    29    11    23 1   
    30    11    36 1   
    31    12    13 1   
    32    12    23 1   
    33    12    24 2   
    34    14    15 ar  
    35    14    37 1   
    36    16    17 ar  
    37    16    21 ar  
    38    17    18 ar  
    39    17    22 1   
    40    18    19 ar  
    41    18    38 1   
    42    19    20 ar  
    43    19    39 1   
    44    20    21 ar  
    45    20    40 1   
    46    21    41 1   
    47    22    42 1   
    48    23    43 1   
@<TRIPOS>SUBSTRUCTURE
     1 VXE         1 TEMP              0 ****  ****    0 ROOT
