@<TRIPOS>MOLECULE
VXF
   29    30     1     0     0
SMALL
No Charge or Current Charge


@<TRIPOS>ATOM
      1 N1          19.8830     4.4360    19.1890 n8         1 VXF      -0.996200
      2 C7          12.3350     5.1740    19.2520 c6         1 VXF       0.141100
      3 C8          11.8820     3.0160    18.3050 c6         1 VXF       0.141100
      4 N2          14.2680     3.9200    18.1520 nh         1 VXF      -0.809300
      5 C9          13.4000     2.6870    18.1700 c6         1 VXF       0.201800
      6 C1          16.9650     2.9900    16.0170 ca         1 VXF       0.376900
      7 C5          19.1190     5.2590    18.2290 c3         1 VXF       0.190100
      8 C6          13.8760     4.9560    19.1680 c6         1 VXF       0.201800
      9 C4          17.9330     4.4970    17.6440 ca         1 VXF      -0.008300
     10 C3          16.6520     4.5900    18.2130 ca         1 VXF      -0.234000
     11 C2          15.5840     3.8690    17.6450 ca         1 VXF       0.626900
     12 C           18.0810     3.6740    16.5180 ca         1 VXF      -0.197000
     13 N           15.7360     3.0820    16.5660 nb         1 VXF      -0.751000
     14 O           11.6410     3.9160    19.4110 os         1 VXF      -0.464000
     15 H1          20.6130     5.0170    19.6190 hn         1 VXF       0.396500
     16 H2          19.2690     4.1950    19.9760 hn         1 VXF       0.396500
     17 H5          12.0980     5.8270    20.1040 h1         1 VXF       0.053450
     18 H6          11.5190     3.4790    17.3760 h1         1 VXF       0.053450
     19 H7          11.3150     2.0880    18.4650 h1         1 VXF       0.053450
     20 H8          13.5230     2.0940    17.2530 h1         1 VXF       0.058200
     21 H9          13.6940     2.0410    19.0100 h1         1 VXF       0.058200
     22 H10         17.0580     2.3440    15.1440 h4         1 VXF       0.015100
     23 H11         19.7910     5.5740    17.4190 h1         1 VXF       0.038200
     24 H12         18.7600     6.1620    18.7430 h1         1 VXF       0.038200
     25 H13         14.2450     4.6640    20.1620 h1         1 VXF       0.058200
     26 H14         14.3340     5.9260    18.9210 h1         1 VXF       0.058200
     27 H15         16.5020     5.2090    19.0910 ha         1 VXF       0.115000
     28 H16         19.0470     3.5580    16.0350 ha         1 VXF       0.134000
     29 H4          11.9790     5.6700    18.3370 h1         1 VXF       0.053450
@<TRIPOS>BOND
     1     1     7 1   
     2     1    15 1   
     3     1    16 1   
     4     2     8 1   
     5     2    14 1   
     6     2    17 1   
     7     2    29 1   
     8     3     5 1   
     9     3    14 1   
    10     3    18 1   
    11     3    19 1   
    12     4     5 1   
    13     4     8 1   
    14     4    11 1   
    15     5    20 1   
    16     5    21 1   
    17     6    12 ar  
    18     6    13 ar  
    19     6    22 1   
    20     7     9 1   
    21     7    23 1   
    22     7    24 1   
    23     8    25 1   
    24     8    26 1   
    25     9    10 ar  
    26     9    12 ar  
    27    10    11 ar  
    28    10    27 1   
    29    11    13 ar  
    30    12    28 1   
@<TRIPOS>SUBSTRUCTURE
     1 VXF         1 TEMP              0 ****  ****    0 ROOT
