@<TRIPOS>MOLECULE
VXF
   29    30     1     0     0
SMALL
abcg2


@<TRIPOS>ATOM
      1 N1          19.9910     4.2790    19.0620 n8         1 VXF      -0.996200
      2 C7          12.3350     5.2660    18.9650 c6         1 VXF       0.141100
      3 C8          12.1910     2.8840    18.7140 c6         1 VXF       0.141100
      4 N2          14.2140     4.0450    18.0250 nh         1 VXF      -0.809300
      5 C9          13.1530     3.1530    17.5710 c6         1 VXF       0.201800
      6 C1          17.0330     2.8220    16.2720 ca         1 VXF       0.376900
      7 C5          18.9910     5.1870    18.4790 c3         1 VXF       0.190100
      8 C6          13.8350     5.0420    19.0190 c6         1 VXF       0.201800
      9 C4          17.8630     4.4180    17.8380 ca         1 VXF      -0.008300
     10 C3          16.5610     4.6020    18.2580 ca         1 VXF      -0.234000
     11 C2          15.5140     3.8750    17.6410 ca         1 VXF       0.626900
     12 C           18.1110     3.4970    16.8100 ca         1 VXF      -0.197000
     13 N           15.7630     2.9930    16.6580 nb         1 VXF      -0.751000
     14 O           11.5890     4.0780    19.2330 os         1 VXF      -0.464000
     15 H1          20.7650     4.8240    19.4280 hn         1 VXF       0.396500
     16 H2          19.5840     3.7930    19.8560 hn         1 VXF       0.396500
     17 H5          12.0470     5.9960    19.7210 h1         1 VXF       0.053450
     18 H6          11.3820     2.2370    18.3720 h1         1 VXF       0.053450
     19 H7          12.7260     2.3720    19.5220 h1         1 VXF       0.053450
     20 H8          12.6190     3.5770    16.7130 h1         1 VXF       0.058200
     21 H9          13.5950     2.2130    17.2480 h1         1 VXF       0.058200
     22 H10         17.1870     2.0990    15.4760 h4         1 VXF       0.015100
     23 H11         19.4930     5.7800    17.7100 h1         1 VXF       0.038200
     24 H12         18.5690     5.8910    19.2060 h1         1 VXF       0.038200
     25 H13         14.1330     4.7330    20.0290 h1         1 VXF       0.058200
     26 H14         14.3290     5.9930    18.8050 h1         1 VXF       0.058200
     27 H15         16.3560     5.2880    19.0660 ha         1 VXF       0.115000
     28 H16         19.1140     3.3140    16.4520 ha         1 VXF       0.134000
     29 H4          12.0620     5.6650    17.9820 h1         1 VXF       0.053450
@<TRIPOS>BOND
     1     1     7 1   
     2     1    15 1   
     3     1    16 1   
     4     2     8 1   
     5     2    14 1   
     6     2    17 1   
     7     2    29 1   
     8     3     5 1   
     9     3    14 1   
    10     3    18 1   
    11     3    19 1   
    12     4     5 1   
    13     4     8 1   
    14     4    11 1   
    15     5    20 1   
    16     5    21 1   
    17     6    12 ar  
    18     6    13 ar  
    19     6    22 1   
    20     7     9 1   
    21     7    23 1   
    22     7    24 1   
    23     8    25 1   
    24     8    26 1   
    25     9    10 ar  
    26     9    12 ar  
    27    10    11 ar  
    28    10    27 1   
    29    11    13 ar  
    30    12    28 1   
@<TRIPOS>SUBSTRUCTURE
     1 VXF         1 TEMP              0 ****  ****    0 ROOT
