@<TRIPOS>MOLECULE
VXG
   31    32     1     0     0
SMALL
bcc


@<TRIPOS>ATOM
      1 N1         -30.3630    13.5440   -21.2110 n          1 VXG      -0.472800
      2 C4         -29.5050    16.8230   -22.6860 ca         1 VXG      -0.028300
      3 C5         -29.7710    18.1530   -22.3710 ca         1 VXG      -0.112000
      4 C6         -29.0610    19.1880   -22.9670 ca         1 VXG      -0.137500
      5 C7         -28.0660    18.9050   -23.8920 ca         1 VXG      -0.146000
      6 C8         -27.7900    17.5830   -24.2150 ca         1 VXG      -0.137500
      7 C10        -29.4790    14.6970   -21.2630 c5         1 VXG       0.103000
      8 C13        -31.4800    13.6640   -22.1450 c5         1 VXG       0.108000
      9 O1         -32.2880    15.7230   -24.8900 o          1 VXG      -0.826800
     10 C1         -32.2910    15.5950   -23.6520 c          1 VXG       0.936600
     11 C2         -31.0950    14.8470   -23.0250 c5         1 VXG      -0.203700
     12 C3         -30.2990    15.7220   -22.0470 c5         1 VXG      -0.034400
     13 C9         -28.5030    16.5530   -23.6180 ca         1 VXG      -0.112000
     14 C11        -30.1590    12.5260   -20.3600 c          1 VXG       0.666100
     15 C12        -31.1880    11.4220   -20.3900 c3         1 VXG      -0.174100
     16 O2         -29.1910    12.4930   -19.6060 o          1 VXG      -0.653100
     17 O3         -33.1480    16.0210   -22.8520 o          1 VXG      -0.826800
     18 H1         -30.5470    18.3820   -21.6490 ha         1 VXG       0.131000
     19 H2         -29.2860    20.2150   -22.7060 ha         1 VXG       0.114000
     20 H3         -27.5100    19.7090   -24.3580 ha         1 VXG       0.110000
     21 H4         -27.0180    17.3520   -24.9380 ha         1 VXG       0.114000
     22 H5         -28.5430    14.4490   -21.7740 h1         1 VXG       0.040200
     23 H6         -29.2250    15.0520   -20.2630 h1         1 VXG       0.040200
     24 H7         -32.4130    13.8700   -21.6130 h1         1 VXG       0.046200
     25 H8         -31.6150    12.7500   -22.7250 h1         1 VXG       0.046200
     26 H9         -30.4250    14.4970   -23.8170 hc         1 VXG       0.044700
     27 H10        -31.0180    16.1740   -21.3570 hc         1 VXG       0.078700
     28 H11        -28.2770    15.5270   -23.8870 ha         1 VXG       0.131000
     29 H12        -30.9920    10.7150   -19.5870 hc         1 VXG       0.051700
     30 H13        -32.2020    11.8080   -20.2780 hc         1 VXG       0.051700
     31 H14        -31.1530    10.8820   -21.3380 hc         1 VXG       0.051700
@<TRIPOS>BOND
     1     1     7 1   
     2     1     8 1   
     3     1    14 1   
     4     2     3 ar  
     5     2    12 1   
     6     2    13 ar  
     7     3     4 ar  
     8     3    18 1   
     9     4     5 ar  
    10     4    19 1   
    11     5     6 ar  
    12     5    20 1   
    13     6    13 ar  
    14     6    21 1   
    15     7    12 1   
    16     7    22 1   
    17     7    23 1   
    18     8    11 1   
    19     8    24 1   
    20     8    25 1   
    21     9    10 1   
    22    10    11 1   
    23    10    17 1   
    24    11    12 1   
    25    11    26 1   
    26    12    27 1   
    27    13    28 1   
    28    14    15 1   
    29    14    16 2   
    30    15    29 1   
    31    15    30 1   
    32    15    31 1   
@<TRIPOS>SUBSTRUCTURE
     1 VXG         1 TEMP              0 ****  ****    0 ROOT
