@<TRIPOS>MOLECULE
VXG
   31    32     1     0     0
SMALL
No Charge or Current Charge


@<TRIPOS>ATOM
      1 N1         -30.3750    13.5950   -21.2080 n          1 VXG      -0.405800
      2 C4         -29.5470    16.8640   -22.6640 ca         1 VXG      -0.028300
      3 C5         -29.7710    18.2330   -22.4080 ca         1 VXG      -0.094000
      4 C6         -28.9870    19.2210   -23.0300 ca         1 VXG      -0.119500
      5 C7         -27.9660    18.8530   -23.9180 ca         1 VXG      -0.128000
      6 C8         -27.7310    17.4960   -24.1850 ca         1 VXG      -0.119500
      7 C10        -29.5270    14.8080   -21.1980 c5         1 VXG       0.103000
      8 C13        -31.5260    13.6920   -22.1360 c5         1 VXG       0.108000
      9 O1         -32.4640    15.6240   -24.8460 o          1 VXG      -0.721500
     10 C1         -32.3790    15.5600   -23.6290 c          1 VXG       0.726000
     11 C2         -31.1180    14.9040   -23.0150 c5         1 VXG      -0.203700
     12 C3         -30.4290    15.8220   -21.9600 c5         1 VXG      -0.034400
     13 C9         -28.5140    16.5080   -23.5630 ca         1 VXG      -0.094000
     14 C11        -30.1220    12.4860   -20.3780 c          1 VXG       0.599100
     15 C12        -31.0770    11.2910   -20.4410 c3         1 VXG      -0.174100
     16 O2         -29.1590    12.4750   -19.6200 o          1 VXG      -0.653100
     17 O3         -33.2570    15.9960   -22.8980 o          1 VXG      -0.721500
     18 H1         -30.5590    18.5360   -21.7230 ha         1 VXG       0.113000
     19 H2         -29.1740    20.2720   -22.8210 ha         1 VXG       0.096000
     20 H3         -27.3600    19.6170   -24.4000 ha         1 VXG       0.092000
     21 H4         -26.9400    17.2070   -24.8740 ha         1 VXG       0.096000
     22 H5         -28.5780    14.6050   -21.7110 h1         1 VXG       0.040200
     23 H6         -29.3030    15.1520   -20.1800 h1         1 VXG       0.040200
     24 H7         -32.4510    13.8760   -21.5730 h1         1 VXG       0.046200
     25 H8         -31.6600    12.7850   -22.7410 h1         1 VXG       0.046200
     26 H9         -30.4390    14.5820   -23.8120 hc         1 VXG       0.044700
     27 H10        -31.1570    16.2720   -21.2730 hc         1 VXG       0.078700
     28 H11        -28.3120    15.4640   -23.7870 ha         1 VXG       0.113000
     29 H12        -30.8150    10.5040   -19.7260 hc         1 VXG       0.051700
     30 H13        -32.1060    11.6390   -20.2980 hc         1 VXG       0.051700
     31 H14        -31.0960    10.9030   -21.4660 hc         1 VXG       0.051700
@<TRIPOS>BOND
     1     1     7 1   
     2     1     8 1   
     3     1    14 1   
     4     2     3 ar  
     5     2    12 1   
     6     2    13 ar  
     7     3     4 ar  
     8     3    18 1   
     9     4     5 ar  
    10     4    19 1   
    11     5     6 ar  
    12     5    20 1   
    13     6    13 ar  
    14     6    21 1   
    15     7    12 1   
    16     7    22 1   
    17     7    23 1   
    18     8    11 1   
    19     8    24 1   
    20     8    25 1   
    21     9    10 1   
    22    10    11 1   
    23    10    17 1   
    24    11    12 1   
    25    11    26 1   
    26    12    27 1   
    27    13    28 1   
    28    14    15 1   
    29    14    16 2   
    30    15    29 1   
    31    15    30 1   
    32    15    31 1   
@<TRIPOS>SUBSTRUCTURE
     1 VXG         1 TEMP              0 ****  ****    0 ROOT
