@<TRIPOS>MOLECULE
VXH
   14    14     1     0     0
SMALL
abcg2


@<TRIPOS>ATOM
      1 O1         -59.9250    44.1270   -36.2980 o          1 VXH      -0.692200
      2 C1         -61.2420    42.5950   -38.4410 ca         1 VXH       0.004000
      3 C4         -61.1870    40.8370   -40.0510 ca         1 VXH       0.333900
      4 C3         -59.2700    41.3510   -38.9380 ca         1 VXH       0.410900
      5 C2         -59.8940    42.3640   -38.2170 ca         1 VXH      -0.266500
      6 N          -59.8960    40.6030   -39.8360 nb         1 VXH      -0.714000
      7 C          -61.9030    41.8140   -39.3780 ca         1 VXH      -0.206000
      8 O          -58.1050    44.2170   -37.9560 o          1 VXH      -0.692200
      9 O2         -58.1510    42.4180   -36.2820 o          1 VXH      -0.692200
     10 S          -58.9340    43.3730   -37.0810 s6         1 VXH       1.267100
     11 H3         -58.2190    41.1300   -38.7790 h4         1 VXH       0.027100
     12 H4         -62.9540    41.9590   -39.5850 ha         1 VXH       0.098000
     13 H1         -61.7720    43.3650   -37.8970 ha         1 VXH       0.133000
     14 H2         -61.6740    40.2160   -40.7950 h4         1 VXH      -0.010900
@<TRIPOS>BOND
     1     1    10 1   
     2     2     5 ar  
     3     2     7 ar  
     4     2    13 1   
     5     3     6 ar  
     6     3     7 ar  
     7     3    14 1   
     8     4     5 ar  
     9     4     6 ar  
    10     4    11 1   
    11     5    10 1   
    12     7    12 1   
    13     8    10 1   
    14     9    10 1   
@<TRIPOS>SUBSTRUCTURE
     1 VXH         1 TEMP              0 ****  ****    0 ROOT
