@<TRIPOS>MOLECULE
VXH
   14    14     1     0     0
SMALL
No Charge or Current Charge


@<TRIPOS>ATOM
      1 O1         -59.8980    44.2770   -36.4470 o          1 VXH      -0.692200
      2 C1         -61.2790    42.5920   -38.4040 ca         1 VXH       0.004000
      3 C4         -61.1860    40.8290   -40.0610 ca         1 VXH       0.333900
      4 C3         -59.2290    41.4420   -38.9780 ca         1 VXH       0.410900
      5 C2         -59.8950    42.4110   -38.2240 ca         1 VXH      -0.266500
      6 N          -59.8570    40.6560   -39.8880 nb         1 VXH      -0.714000
      7 C          -61.9300    41.7800   -39.3450 ca         1 VXH      -0.206000
      8 O          -57.9210    44.0040   -37.9480 o          1 VXH      -0.692200
      9 O2         -58.3730    42.3180   -36.1780 o          1 VXH      -0.692200
     10 S          -58.9010    43.3790   -37.0480 s6         1 VXH       1.267100
     11 H3         -58.1570    41.2780   -38.8610 h4         1 VXH       0.027100
     12 H4         -62.9970    41.8810   -39.5200 ha         1 VXH       0.098000
     13 H1         -61.8370    43.3360   -37.8370 ha         1 VXH       0.133000
     14 H2         -61.6660    40.1860   -40.7960 h4         1 VXH      -0.010900
@<TRIPOS>BOND
     1     1    10 1   
     2     2     5 ar  
     3     2     7 ar  
     4     2    13 1   
     5     3     6 ar  
     6     3     7 ar  
     7     3    14 1   
     8     4     5 ar  
     9     4     6 ar  
    10     4    11 1   
    11     5    10 1   
    12     7    12 1   
    13     8    10 1   
    14     9    10 1   
@<TRIPOS>SUBSTRUCTURE
     1 VXH         1 TEMP              0 ****  ****    0 ROOT
