@<TRIPOS>MOLECULE
VXI
   73    76     1     0     0
SMALL
No Charge or Current Charge


@<TRIPOS>ATOM
      1 CAH        128.0430    89.9210    93.5600 c6         1 VXI      -0.087700
      2 CAI        126.8690    90.6150    92.8200 c6         1 VXI      -0.069400
      3 CAJ        128.7470    88.9100    92.6170 c6         1 VXI       0.178800
      4 CAK        125.9180    89.5590    92.2160 c6         1 VXI      -0.076400
      5 CAL        129.0710    90.9310    94.1440 c3         1 VXI       0.110000
      6 CAM        126.6880    88.5580    91.3220 c6         1 VXI       0.168800
      7 CAO        128.1290    93.2250    94.6870 c3         1 VXI       0.111000
      8 CAP        127.6570    85.6390    90.8690 c3         1 VXI      -0.030100
      9 CAQ        128.5370    91.5760    96.5190 c          1 VXI       0.569000
     10 CAR        129.1890    94.2860    95.0440 c3         1 VXI      -0.046100
     11 CAS        128.0070    92.6420    97.4840 c3         1 VXI      -0.117100
     12 CAT        129.5380    94.5130    96.5320 ca         1 VXI      -0.093300
     13 CAU        129.0210    93.7760    97.6360 ca         1 VXI      -0.035300
     14 CAV        128.4990    84.5460    90.2240 ca         1 VXI      -0.078300
     15 CAW        130.4640    95.5420    96.7850 ca         1 VXI      -0.099000
     16 CAX        129.4440    94.1010    98.9410 ca         1 VXI      -0.183000
     17 CAY        129.0730    83.5330    91.0150 ca         1 VXI      -0.168000
     18 CAZ        130.8920    95.8690    98.0820 ca         1 VXI       0.074100
     19 CBA        128.7150    84.5480    88.8350 ca         1 VXI      -0.107000
     20 CBB        130.3740    95.1360    99.1890 ca         1 VXI       0.124100
     21 CBC        129.8610    82.5200    90.4210 ca         1 VXI       0.113100
     22 CBD        129.4950    83.5470    88.2330 ca         1 VXI      -0.170000
     23 CBE        130.0730    82.5260    89.0210 ca         1 VXI       0.109100
     24 CBF        132.3800    97.4090    99.3850 c3         1 VXI       0.149900
     25 CBG        130.2820    94.7240   101.6380 c3         1 VXI       0.143900
     26 CBH        130.2810    81.4230    92.6020 c3         1 VXI       0.145900
     27 CBI        131.1170    81.4500    87.0500 c3         1 VXI       0.145900
     28 NAF        127.8010    87.8990    92.0670 n3         1 VXI      -0.726600
     29 NAG        128.5140    91.8740    95.1440 n          1 VXI      -0.410800
     30 OAB        131.8100    96.9110    98.1610 os         1 VXI      -0.346100
     31 OAC        130.7710    95.4310   100.4840 os         1 VXI      -0.325100
     32 OAD        130.4390    81.5100    91.1750 os         1 VXI      -0.323100
     33 OAE        130.8480    81.5230    88.4620 os         1 VXI      -0.321100
     34 H1         127.6410    89.3620    94.4150 hc         1 VXI       0.083700
     35 H2         126.3060    91.2600    93.5090 hc         1 VXI       0.035200
     36 H3         127.2570    91.2630    92.0220 hc         1 VXI       0.035200
     37 H4         129.2320    89.4590    91.7960 h1         1 VXI       0.029700
     38 H5         129.5460    88.4050    93.1810 h1         1 VXI       0.029700
     39 H6         125.4100    89.0120    93.0220 hc         1 VXI       0.046700
     40 H7         125.1330    90.0530    91.6290 hc         1 VXI       0.046700
     41 H8         129.8970    90.3700    94.5990 h1         1 VXI       0.052200
     42 H9         129.5040    91.5060    93.3150 h1         1 VXI       0.052200
     43 H10        125.9680    87.8140    90.9550 h1         1 VXI       0.028700
     44 H11        127.0820    89.0890    90.4430 h1         1 VXI       0.028700
     45 H12        129.3580    86.4810    91.8660 h1         1 VXI       0.033200
     46 H13        128.9380    87.3080    90.3660 h1         1 VXI       0.033200
     47 H14        127.1470    93.5080    95.0810 h1         1 VXI       0.049700
     48 H15        128.0210    93.2100    93.5950 h1         1 VXI       0.049700
     49 H16        127.1490    85.2490    91.7600 hc         1 VXI       0.053200
     50 H17        126.8680    85.9520    90.1760 hc         1 VXI       0.053200
     51 H18        130.1080    94.0270    94.5050 hc         1 VXI       0.054700
     52 H19        128.8530    95.2370    94.6120 hc         1 VXI       0.054700
     53 H21        127.0760    93.0780    97.1120 hc         1 VXI       0.071200
     54 H22        127.8040    92.1640    98.4490 hc         1 VXI       0.071200
     55 H26        130.8690    96.1090    95.9510 ha         1 VXI       0.123000
     56 H27        129.0330    93.5290    99.7670 ha         1 VXI       0.121000
     57 H28        128.8990    83.5510    92.0870 ha         1 VXI       0.121000
     58 H29        128.2770    85.3300    88.2170 ha         1 VXI       0.111000
     59 H30        129.6390    83.5820    87.1570 ha         1 VXI       0.117000
     60 H31        133.0750    98.2300    99.1700 h1         1 VXI       0.034367
     61 H32        131.6000    97.7960   100.0530 h1         1 VXI       0.034367
     62 H33        132.9430    96.6220    99.9040 h1         1 VXI       0.034367
     63 H34        130.7360    95.1300   102.5510 h1         1 VXI       0.042367
     64 H35        129.1930    94.8250   101.7270 h1         1 VXI       0.042367
     65 H36        130.5360    93.6570   101.5790 h1         1 VXI       0.042367
     66 H37        130.8210    80.5510    92.9910 h1         1 VXI       0.039700
     67 H38        130.6820    82.3180    93.0940 h1         1 VXI       0.039700
     68 H39        129.2230    81.3160    92.8720 h1         1 VXI       0.039700
     69 H40        131.7480    80.5810    86.8280 h1         1 VXI       0.038367
     70 H41        130.1840    81.3480    86.4810 h1         1 VXI       0.038367
     71 H42        131.6440    82.3500    86.7070 h1         1 VXI       0.038367
     72 CAN        128.5130    86.8610    91.2760 c3         1 VXI       0.175800
     73 OAA        129.0370    90.5400    96.9400 o          1 VXI      -0.558000
@<TRIPOS>BOND
     1     1     2 1   
     2     1     3 1   
     3     1     5 1   
     4     1    34 1   
     5     2     4 1   
     6     2    35 1   
     7     2    36 1   
     8     3    28 1   
     9     3    37 1   
    10     3    38 1   
    11     4     6 1   
    12     4    39 1   
    13     4    40 1   
    14     5    29 1   
    15     5    41 1   
    16     5    42 1   
    17     6    28 1   
    18     6    43 1   
    19     6    44 1   
    20     7    10 1   
    21     7    29 1   
    22     7    47 1   
    23     7    48 1   
    24     8    14 1   
    25     8    49 1   
    26     8    50 1   
    27     8    72 1   
    28     9    11 1   
    29     9    29 1   
    30     9    73 2   
    31    10    12 1   
    32    10    51 1   
    33    10    52 1   
    34    11    13 1   
    35    11    53 1   
    36    11    54 1   
    37    12    13 ar  
    38    12    15 ar  
    39    13    16 ar  
    40    14    17 ar  
    41    14    19 ar  
    42    15    18 ar  
    43    15    55 1   
    44    16    20 ar  
    45    16    56 1   
    46    17    21 ar  
    47    17    57 1   
    48    18    20 ar  
    49    18    30 1   
    50    19    22 ar  
    51    19    58 1   
    52    20    31 1   
    53    21    23 ar  
    54    21    32 1   
    55    22    23 ar  
    56    22    59 1   
    57    23    33 1   
    58    24    30 1   
    59    24    60 1   
    60    24    61 1   
    61    24    62 1   
    62    25    31 1   
    63    25    63 1   
    64    25    64 1   
    65    25    65 1   
    66    26    32 1   
    67    26    66 1   
    68    26    67 1   
    69    26    68 1   
    70    27    33 1   
    71    27    69 1   
    72    27    70 1   
    73    27    71 1   
    74    28    72 1   
    75    45    72 1   
    76    46    72 1   
@<TRIPOS>SUBSTRUCTURE
     1 VXI         1 TEMP              0 ****  ****    0 ROOT
