@<TRIPOS>MOLECULE
VXI
   73    76     1     0     0
SMALL
abcg2


@<TRIPOS>ATOM
      1 CAH        128.2150    90.0390    93.4250 c6         1 VXI      -0.087700
      2 CAI        127.0490    90.7480    92.7460 c6         1 VXI      -0.069400
      3 CAJ        128.8630    89.0650    92.4460 c6         1 VXI       0.178800
      4 CAK        126.0880    89.7290    92.1490 c6         1 VXI      -0.076400
      5 CAL        129.2640    91.0070    93.9650 c3         1 VXI       0.110000
      6 CAM        126.8230    88.7550    91.2400 c6         1 VXI       0.168800
      7 CAO        128.4160    93.2730    94.6480 c3         1 VXI       0.111000
      8 CAP        127.6510    85.8160    90.9990 c3         1 VXI      -0.030100
      9 CAQ        128.6310    91.4540    96.2570 c          1 VXI       0.569000
     10 CAR        129.4500    94.2780    95.1280 c3         1 VXI      -0.046100
     11 CAS        128.1170    92.4610    97.2680 c3         1 VXI      -0.117100
     12 CAT        129.7230    94.3430    96.6140 ca         1 VXI      -0.093300
     13 CAU        129.1390    93.5290    97.5820 ca         1 VXI      -0.035300
     14 CAV        128.3950    84.6740    90.3660 ca         1 VXI      -0.078300
     15 CAW        130.6580    95.2920    97.0360 ca         1 VXI      -0.099000
     16 CAX        129.5100    93.6730    98.9230 ca         1 VXI      -0.183000
     17 CAY        129.2240    83.8640    91.1510 ca         1 VXI      -0.168000
     18 CAZ        131.0240    95.4400    98.3580 ca         1 VXI       0.074100
     19 CBA        128.3060    84.4090    89.0120 ca         1 VXI      -0.107000
     20 CBB        130.4410    94.6160    99.3310 ca         1 VXI       0.124100
     21 CBC        129.9350    82.8120    90.6010 ca         1 VXI       0.113100
     22 CBD        129.0200    83.3550    88.4400 ca         1 VXI      -0.170000
     23 CBE        129.8330    82.5500    89.2180 ca         1 VXI       0.109100
     24 CBF        131.4410    97.6120    99.1190 c3         1 VXI       0.149900
     25 CBG        130.3380    93.9400   101.5970 c3         1 VXI       0.143900
     26 CBH        130.8820    82.1890    92.6800 c3         1 VXI       0.145900
     27 CBI        130.4720    81.1840    87.3960 c3         1 VXI       0.145900
     28 NAF        127.9020    88.0960    91.9530 n3         1 VXI      -0.726600
     29 NAG        128.7490    91.9010    94.9910 n          1 VXI      -0.410800
     30 OAB        131.9660    96.3560    98.7160 os         1 VXI      -0.346100
     31 OAC        130.8470    94.8010   100.6000 os         1 VXI      -0.325100
     32 OAD        130.7410    81.9820    91.2910 os         1 VXI      -0.323100
     33 OAE        130.5550    81.5040    88.7680 os         1 VXI      -0.321100
     34 H1         127.8270    89.4510    94.2630 hc         1 VXI       0.083700
     35 H2         126.5240    91.3990    93.4490 hc         1 VXI       0.035200
     36 H3         127.4380    91.3900    91.9450 hc         1 VXI       0.035200
     37 H4         129.3260    89.6370    91.6200 h1         1 VXI       0.029700
     38 H5         129.6720    88.5270    92.9490 h1         1 VXI       0.029700
     39 H6         125.5980    89.1680    92.9500 hc         1 VXI       0.046700
     40 H7         125.3000    90.2290    91.5810 hc         1 VXI       0.046700
     41 H8         130.1100    90.4460    94.3680 h1         1 VXI       0.052200
     42 H9         129.6570    91.6230    93.1530 h1         1 VXI       0.052200
     43 H10        126.1200    88.0070    90.8710 h1         1 VXI       0.028700
     44 H11        127.2040    89.2950    90.3540 h1         1 VXI       0.028700
     45 H12        129.4420    86.7430    91.7150 h1         1 VXI       0.033200
     46 H13        128.8730    87.4060    90.1890 h1         1 VXI       0.033200
     47 H14        127.4200    93.5300    95.0140 h1         1 VXI       0.049700
     48 H15        128.3520    93.3380    93.5630 h1         1 VXI       0.049700
     49 H16        127.2750    85.5200    91.9820 hc         1 VXI       0.053200
     50 H17        126.7810    86.0600    90.3880 hc         1 VXI       0.053200
     51 H18        130.3930    94.0750    94.6110 hc         1 VXI       0.054700
     52 H19        129.1320    95.2670    94.7840 hc         1 VXI       0.054700
     53 H21        127.1790    92.9070    96.9280 hc         1 VXI       0.071200
     54 H22        127.8800    91.9080    98.1760 hc         1 VXI       0.071200
     55 H26        131.1320    95.9340    96.3010 ha         1 VXI       0.123000
     56 H27        129.0450    93.0200    99.6510 ha         1 VXI       0.121000
     57 H28        129.2910    84.0710    92.2120 ha         1 VXI       0.121000
     58 H29        127.6710    85.0180    88.3810 ha         1 VXI       0.111000
     59 H30        128.9210    83.1760    87.3770 ha         1 VXI       0.117000
     60 H31        132.2870    98.2510    99.3630 h1         1 VXI       0.034367
     61 H32        130.8650    98.0810    98.3160 h1         1 VXI       0.034367
     62 H33        130.8020    97.5260   100.0020 h1         1 VXI       0.034367
     63 H34        130.8030    94.2420   102.5330 h1         1 VXI       0.042367
     64 H35        129.2530    94.0270   101.7010 h1         1 VXI       0.042367
     65 H36        130.5890    92.8940   101.4010 h1         1 VXI       0.042367
     66 H37        131.5650    81.4220    93.0390 h1         1 VXI       0.039700
     67 H38        131.3070    83.1710    92.9070 h1         1 VXI       0.039700
     68 H39        129.9310    82.0890    93.2090 h1         1 VXI       0.039700
     69 H40        131.1160    80.3220    87.2390 h1         1 VXI       0.038367
     70 H41        129.4540    80.9220    87.0960 h1         1 VXI       0.038367
     71 H42        130.8220    82.0030    86.7610 h1         1 VXI       0.038367
     72 CAN        128.5400    87.0490    91.1790 c3         1 VXI       0.175800
     73 OAA        128.9340    90.3170    96.5920 o          1 VXI      -0.558000
@<TRIPOS>BOND
     1     1     2 1   
     2     1     3 1   
     3     1     5 1   
     4     1    34 1   
     5     2     4 1   
     6     2    35 1   
     7     2    36 1   
     8     3    28 1   
     9     3    37 1   
    10     3    38 1   
    11     4     6 1   
    12     4    39 1   
    13     4    40 1   
    14     5    29 1   
    15     5    41 1   
    16     5    42 1   
    17     6    28 1   
    18     6    43 1   
    19     6    44 1   
    20     7    10 1   
    21     7    29 1   
    22     7    47 1   
    23     7    48 1   
    24     8    14 1   
    25     8    49 1   
    26     8    50 1   
    27     8    72 1   
    28     9    11 1   
    29     9    29 1   
    30     9    73 2   
    31    10    12 1   
    32    10    51 1   
    33    10    52 1   
    34    11    13 1   
    35    11    53 1   
    36    11    54 1   
    37    12    13 ar  
    38    12    15 ar  
    39    13    16 ar  
    40    14    17 ar  
    41    14    19 ar  
    42    15    18 ar  
    43    15    55 1   
    44    16    20 ar  
    45    16    56 1   
    46    17    21 ar  
    47    17    57 1   
    48    18    20 ar  
    49    18    30 1   
    50    19    22 ar  
    51    19    58 1   
    52    20    31 1   
    53    21    23 ar  
    54    21    32 1   
    55    22    23 ar  
    56    22    59 1   
    57    23    33 1   
    58    24    30 1   
    59    24    60 1   
    60    24    61 1   
    61    24    62 1   
    62    25    31 1   
    63    25    63 1   
    64    25    64 1   
    65    25    65 1   
    66    26    32 1   
    67    26    66 1   
    68    26    67 1   
    69    26    68 1   
    70    27    33 1   
    71    27    69 1   
    72    27    70 1   
    73    27    71 1   
    74    28    72 1   
    75    45    72 1   
    76    46    72 1   
@<TRIPOS>SUBSTRUCTURE
     1 VXI         1 TEMP              0 ****  ****    0 ROOT
