@<TRIPOS>MOLECULE
VXJ
   42    45     1     0     0
SMALL
bcc


@<TRIPOS>ATOM
      1 C10        -52.3710   -18.2370    27.3420 ca         1 VXJ      -0.145000
      2 C11        -53.6100   -18.6920    26.9240 ca         1 VXJ      -0.092000
      3 C17        -57.8430   -21.3730    26.0850 c6         1 VXJ       0.196300
      4 C16        -58.5530   -21.1890    24.7800 cc         1 VXJ      -0.291600
      5 C15        -59.2350   -20.0110    24.4340 cc         1 VXJ       0.327600
      6 C14        -59.3370   -18.8370    25.3470 c6         1 VXJ      -0.128700
      7 C13        -58.9640   -19.3070    26.7500 c6         1 VXJ       0.106000
      8 C18        -58.6800   -22.0090    23.6730 cd         1 VXJ      -0.024300
      9 C19        -58.1760   -23.3520    23.3950 ca         1 VXJ      -0.026000
     10 C20        -57.8520   -23.7490    22.0950 ca         1 VXJ      -0.115500
     11 C21        -57.3790   -25.0280    21.8470 ca         1 VXJ      -0.124500
     12 C22        -57.2080   -25.9270    22.8910 ca         1 VXJ      -0.117000
     13 O01        -56.4920   -18.2530    27.2600 o          1 VXJ      -0.614100
     14 C02        -56.5630   -19.4530    27.0530 c          1 VXJ       0.790100
     15 N03        -55.4560   -20.2760    27.1510 ns         1 VXJ      -0.482100
     16 C04        -54.2070   -19.7840    27.5520 ca         1 VXJ       0.061600
     17 C05        -53.5300   -20.4290    28.5830 ca         1 VXJ      -0.147000
     18 C06        -52.2810   -19.9840    28.9830 ca         1 VXJ      -0.003600
     19 CL07       -51.4350   -20.7770    30.2560 cl         1 VXJ      -0.080400
     20 C08        -51.7140   -18.8810    28.3720 ca         1 VXJ       0.126900
     21 F09        -50.5190   -18.4450    28.7810 f          1 VXJ      -0.126900
     22 N12        -57.7310   -20.0780    26.7400 n          1 VXJ      -0.492800
     23 C23        -57.5210   -25.5400    24.1870 ca         1 VXJ      -0.124500
     24 C24        -58.0050   -24.2650    24.4370 ca         1 VXJ      -0.115500
     25 N25        -59.3970   -21.2910    22.7800 na         1 VXJ       0.003400
     26 N26        -59.7470   -20.0880    23.2200 nd         1 VXJ      -0.503800
     27 H1         -51.9070   -17.3870    26.8590 ha         1 VXJ       0.156000
     28 H2         -54.1010   -18.1970    26.0990 ha         1 VXJ       0.159000
     29 H3         -58.3870   -22.0630    26.7390 h1         1 VXJ       0.052700
     30 H4         -56.8600   -21.8110    25.9160 h1         1 VXJ       0.052700
     31 H5         -58.6620   -18.0370    25.0320 hc         1 VXJ       0.071700
     32 H6         -60.3470   -18.4210    25.3480 hc         1 VXJ       0.071700
     33 H7         -58.8690   -18.4690    27.4330 h1         1 VXJ       0.063700
     34 H8         -59.7530   -19.9550    27.1420 h1         1 VXJ       0.063700
     35 H9         -57.9500   -23.0550    21.2690 ha         1 VXJ       0.132000
     36 H10        -57.1340   -25.3190    20.8340 ha         1 VXJ       0.135500
     37 H11        -56.8340   -26.9240    22.6950 ha         1 VXJ       0.136000
     38 H12        -55.6160   -21.2460    27.3730 hn         1 VXJ       0.312500
     39 H13        -53.9800   -21.2780    29.0830 ha         1 VXJ       0.145000
     40 H14        -57.3970   -26.2350    25.0070 ha         1 VXJ       0.135500
     41 H15        -58.2710   -23.9910    25.4500 ha         1 VXJ       0.132000
     42 H16        -59.7220   -21.6010    21.8770 hn         1 VXJ       0.324700
@<TRIPOS>BOND
     1     1     2 ar  
     2     1    20 ar  
     3     1    27 1   
     4     2    16 ar  
     5     2    28 1   
     6     3     4 1   
     7     3    22 1   
     8     3    29 1   
     9     3    30 1   
    10     4     5 1   
    11     4     8 2   
    12     5     6 1   
    13     5    26 2   
    14     6     7 1   
    15     6    31 1   
    16     6    32 1   
    17     7    22 1   
    18     7    33 1   
    19     7    34 1   
    20     8     9 1   
    21     8    25 1   
    22     9    10 ar  
    23     9    24 ar  
    24    10    11 ar  
    25    10    35 1   
    26    11    12 ar  
    27    11    36 1   
    28    12    23 ar  
    29    12    37 1   
    30    13    14 2   
    31    14    15 1   
    32    14    22 1   
    33    15    16 1   
    34    15    38 1   
    35    16    17 ar  
    36    17    18 ar  
    37    17    39 1   
    38    18    19 1   
    39    18    20 ar  
    40    20    21 1   
    41    23    24 ar  
    42    23    40 1   
    43    24    41 1   
    44    25    26 1   
    45    25    42 1   
@<TRIPOS>SUBSTRUCTURE
     1 VXJ         1 TEMP              0 ****  ****    0 ROOT
