@<TRIPOS>MOLECULE
VXJ
   42    45     1     0     0
SMALL
No Charge or Current Charge


@<TRIPOS>ATOM
      1 C10        -52.9530   -18.8980    29.6380 ca         1 VXJ      -0.127000
      2 C11        -54.1190   -18.8550    28.8520 ca         1 VXJ      -0.074000
      3 C17        -57.3300   -20.5310    25.0210 c6         1 VXJ       0.196300
      4 C16        -58.5590   -20.9620    24.2530 cc         1 VXJ      -0.226300
      5 C15        -59.6010   -20.0780    23.9620 cc         1 VXJ       0.262300
      6 C14        -59.4690   -18.6510    24.3820 c6         1 VXJ      -0.128700
      7 C13        -58.8000   -18.5740    25.7670 c6         1 VXJ       0.106000
      8 C18        -58.9230   -22.1870    23.7500 cd         1 VXJ      -0.075000
      9 C19        -58.1980   -23.4820    23.6890 ca         1 VXJ      -0.026000
     10 C20        -58.8940   -24.6480    23.2910 ca         1 VXJ      -0.097500
     11 C21        -58.2430   -25.8920    23.2210 ca         1 VXJ      -0.106500
     12 C22        -56.8810   -25.9940    23.5390 ca         1 VXJ      -0.099000
     13 O01        -56.7800   -18.0320    27.6320 o          1 VXJ      -0.614100
     14 C02        -56.5630   -18.9560    26.8590 c          1 VXJ       0.656100
     15 N03        -55.4000   -19.7210    26.8850 ns         1 VXJ      -0.156000
     16 C04        -54.2530   -19.7020    27.7270 ca         1 VXJ      -0.031000
     17 C05        -53.2050   -20.5890    27.4120 ca         1 VXJ      -0.129000
     18 C06        -52.0400   -20.6320    28.1970 ca         1 VXJ       0.088000
     19 Cl07       -50.7490   -21.7550    27.7690 cl         1 VXJ      -0.172000
     20 C08        -51.9150   -19.7830    29.3120 ca         1 VXJ       0.162000
     21 F09        -50.8000   -19.8140    30.0770 f          1 VXJ      -0.162000
     22 N12        -57.4990   -19.3010    25.8580 n          1 VXJ      -0.425800
     23 C23        -56.1710   -24.8460    23.9210 ca         1 VXJ      -0.106500
     24 C24        -56.8220   -23.6020    23.9930 ca         1 VXJ      -0.097500
     25 N25        -60.1910   -21.9460    23.1900 na         1 VXJ       0.003800
     26 N26        -60.6080   -20.6230    23.3210 nd         1 VXJ      -0.503800
     27 H1         -52.8540   -18.2450    30.5020 ha         1 VXJ       0.138000
     28 H2         -54.9040   -18.1610    29.1380 ha         1 VXJ       0.141000
     29 H3         -57.0410   -21.3490    25.6940 h1         1 VXJ       0.052700
     30 H4         -56.4970   -20.3650    24.3220 h1         1 VXJ       0.052700
     31 H5         -58.8660   -18.0970    23.6510 hc         1 VXJ       0.071700
     32 H6         -60.4500   -18.1590    24.4180 hc         1 VXJ       0.071700
     33 H7         -58.6520   -17.5140    26.0200 h1         1 VXJ       0.063700
     34 H8         -59.4840   -18.9920    26.5190 h1         1 VXJ       0.063700
     35 H9         -59.9510   -24.6060    23.0470 ha         1 VXJ       0.114000
     36 H10        -58.7980   -26.7790    22.9210 ha         1 VXJ       0.117500
     37 H11        -56.3770   -26.9560    23.4830 ha         1 VXJ       0.118000
     38 H12        -55.3600   -20.4300    26.1660 hn         1 VXJ       0.146000
     39 H13        -53.2900   -21.2500    26.5520 ha         1 VXJ       0.127000
     40 H14        -55.1110   -24.9180    24.1550 ha         1 VXJ       0.117500
     41 H15        -56.2260   -22.7380    24.2570 ha         1 VXJ       0.114000
     42 H16        -60.7700   -22.6320    22.7100 hn         1 VXJ       0.375000
@<TRIPOS>BOND
     1     1     2 ar  
     2     1    20 ar  
     3     1    27 1   
     4     2    16 ar  
     5     2    28 1   
     6     3     4 1   
     7     3    22 1   
     8     3    29 1   
     9     3    30 1   
    10     4     5 1   
    11     4     8 2   
    12     5     6 1   
    13     5    26 2   
    14     6     7 1   
    15     6    31 1   
    16     6    32 1   
    17     7    22 1   
    18     7    33 1   
    19     7    34 1   
    20     8     9 1   
    21     8    25 1   
    22     9    10 ar  
    23     9    24 ar  
    24    10    11 ar  
    25    10    35 1   
    26    11    12 ar  
    27    11    36 1   
    28    12    23 ar  
    29    12    37 1   
    30    13    14 2   
    31    14    15 1   
    32    14    22 1   
    33    15    16 1   
    34    15    38 1   
    35    16    17 ar  
    36    17    18 ar  
    37    17    39 1   
    38    18    19 1   
    39    18    20 ar  
    40    20    21 1   
    41    23    24 ar  
    42    23    40 1   
    43    24    41 1   
    44    25    26 1   
    45    25    42 1   
@<TRIPOS>SUBSTRUCTURE
     1 VXJ         1 TEMP              0 ****  ****    0 ROOT
