@<TRIPOS>MOLECULE
VXK
   22    22     1     0     0
SMALL
abcg2


@<TRIPOS>ATOM
      1 C7          -2.5700    12.7540   -34.4760 cc         1 VXK      -0.174000
      2 C1          -4.0020    17.7620   -32.3160 c3         1 VXK      -0.102400
      3 C5          -1.1190    14.4610   -35.1060 cd         1 VXK      -0.076000
      4 C6          -0.3670    13.3600   -35.3760 cc         1 VXK      -0.175900
      5 C4          -2.4030    14.1110   -34.5790 cd         1 VXK      -0.182600
      6 C3          -3.4900    15.0430   -34.1640 c          1 VXK       0.630700
      7 C2          -4.1340    17.3930   -33.7930 c3         1 VXK       0.101000
      8 BR           1.3810    13.3320   -36.0810 br         1 VXK      -0.040100
      9 S           -1.1920    11.8880   -35.0040 ss         1 VXK       0.277000
     10 O           -4.5920    14.6130   -33.8090 o          1 VXK      -0.608100
     11 N           -3.2000    16.3580   -34.2080 ns         1 VXK      -0.501900
     12 C           -4.9920    18.8520   -31.9130 c3         1 VXK      -0.087100
     13 H1          -3.4390    12.2320   -34.1090 h4         1 VXK       0.174000
     14 H2          -4.1640    16.8640   -31.7130 hc         1 VXK       0.046200
     15 H3          -2.9780    18.0940   -32.1240 hc         1 VXK       0.046200
     16 H4          -0.7650    15.4650   -35.2880 ha         1 VXK       0.141000
     17 H5          -3.9540    18.2710   -34.4160 h1         1 VXK       0.056700
     18 H6          -5.1430    17.0370   -34.0020 h1         1 VXK       0.056700
     19 H7          -2.2630    16.6460   -34.4350 hn         1 VXK       0.311500
     20 H8          -4.8860    19.1070   -30.8570 hc         1 VXK       0.035033
     21 H9          -4.8310    19.7620   -32.4960 hc         1 VXK       0.035033
     22 H10         -6.0220    18.5260   -32.0790 hc         1 VXK       0.035033
@<TRIPOS>BOND
     1     1     5 2   
     2     1     9 1   
     3     1    13 1   
     4     2     7 1   
     5     2    12 1   
     6     2    14 1   
     7     2    15 1   
     8     3     4 2   
     9     3     5 1   
    10     3    16 1   
    11     4     8 1   
    12     4     9 1   
    13     5     6 1   
    14     6    10 2   
    15     6    11 1   
    16     7    11 1   
    17     7    17 1   
    18     7    18 1   
    19    11    19 1   
    20    12    20 1   
    21    12    21 1   
    22    12    22 1   
@<TRIPOS>SUBSTRUCTURE
     1 VXK         1 TEMP              0 ****  ****    0 ROOT
