@<TRIPOS>MOLECULE
VXK
   22    22     1     0     0
SMALL
No Charge or Current Charge


@<TRIPOS>ATOM
      1 C7          -2.5480    12.7130   -34.4320 cc         1 VXK      -0.174000
      2 C1          -4.0570    17.7120   -32.3350 c3         1 VXK      -0.102400
      3 C5          -1.1530    14.4660   -35.0830 cd         1 VXK      -0.076000
      4 C6          -0.3510    13.4020   -35.4000 cc         1 VXK      -0.175900
      5 C4          -2.4160    14.0850   -34.5260 cd         1 VXK      -0.182600
      6 C3          -3.5110    14.9930   -34.0770 c          1 VXK       0.630700
      7 C2          -4.1150    17.4280   -33.8500 c3         1 VXK       0.101000
      8 Br           1.3760    13.4930   -36.1490 br         1 VXK      -0.040100
      9 S           -1.1220    11.8680   -35.0260 ss         1 VXK       0.277000
     10 O           -4.5720    14.6000   -33.6080 o          1 VXK      -0.608100
     11 N           -3.2270    16.3300   -34.2390 ns         1 VXK      -0.501900
     12 C           -4.9660    18.8800   -31.9080 c3         1 VXK      -0.087100
     13 H1          -3.3810    12.1330   -34.0560 h4         1 VXK       0.174000
     14 H2          -4.3510    16.8110   -31.7820 hc         1 VXK       0.046200
     15 H3          -3.0230    17.9410   -32.0490 hc         1 VXK       0.046200
     16 H4          -0.8400    15.4940   -35.2450 ha         1 VXK       0.141000
     17 H5          -3.8160    18.3300   -34.4020 h1         1 VXK       0.056700
     18 H6          -5.1440    17.1800   -34.1420 h1         1 VXK       0.056700
     19 H7          -2.3260    16.5570   -34.6390 hn         1 VXK       0.311500
     20 H8          -4.8930    19.0460   -30.8260 hc         1 VXK       0.035033
     21 H9          -4.6740    19.8060   -32.4180 hc         1 VXK       0.035033
     22 H10         -6.0140    18.6650   -32.1520 hc         1 VXK       0.035033
@<TRIPOS>BOND
     1     1     5 2   
     2     1     9 1   
     3     1    13 1   
     4     2     7 1   
     5     2    12 1   
     6     2    14 1   
     7     2    15 1   
     8     3     4 2   
     9     3     5 1   
    10     3    16 1   
    11     4     8 1   
    12     4     9 1   
    13     5     6 1   
    14     6    10 2   
    15     6    11 1   
    16     7    11 1   
    17     7    17 1   
    18     7    18 1   
    19    11    19 1   
    20    12    20 1   
    21    12    21 1   
    22    12    22 1   
@<TRIPOS>SUBSTRUCTURE
     1 VXK         1 TEMP              0 ****  ****    0 ROOT
