@<TRIPOS>MOLECULE
VXM
   32    34     1     0     0
SMALL
No Charge or Current Charge


@<TRIPOS>ATOM
      1 C02        -37.4570   -22.1800   -17.4180 c          1 VXM       0.584600
      2 N03        -36.2680   -22.0290   -16.7680 ns         1 VXM      -0.486500
      3 C04        -36.2010   -22.5430   -15.5080 c          1 VXM       0.603600
      4 C08        -37.4360   -25.0040   -12.0150 c3         1 VXM       0.286100
      5 C09        -36.3010   -24.9100   -11.0020 ca         1 VXM      -0.130300
      6 C10        -36.2470   -23.7940   -10.1370 ca         1 VXM      -0.098000
      7 C11        -35.2160   -23.6770    -9.1920 ca         1 VXM       0.131000
      8 C13        -34.2290   -24.6690    -9.0940 ca         1 VXM      -0.093000
      9 C15        -35.3040   -25.9090   -10.8980 ca         1 VXM       0.149100
     10 C17        -39.3930   -24.2380   -14.2360 ca         1 VXM      -0.189000
     11 C20        -38.3050   -22.9100   -16.4280 ca         1 VXM      -0.088600
     12 C05        -37.5450   -23.1250   -15.2810 ca         1 VXM      -0.273600
     13 C06        -38.0580   -23.7870   -14.1690 ca         1 VXM       0.415000
     14 C14        -34.2740   -25.7850    -9.9480 ca         1 VXM      -0.185000
     15 C18        -40.1760   -24.0240   -15.3980 ca         1 VXM      -0.046000
     16 C19        -39.6330   -23.3520   -16.5140 ca         1 VXM      -0.111000
     17 F12        -35.1750   -22.6040    -8.3720 f          1 VXM      -0.176000
     18 N07        -37.2640   -23.9770   -13.0480 nu         1 VXM      -0.951200
     19 O01        -37.7390   -21.8010   -18.5440 o          1 VXM      -0.494000
     20 O16        -35.3230   -27.0030   -11.7130 oh         1 VXM      -0.522100
     21 O21        -35.2430   -22.5210   -14.7530 o          1 VXM      -0.527000
     22 H1         -35.4830   -21.5630   -17.1950 hn         1 VXM       0.344500
     23 H2         -38.3910   -24.8570   -11.4920 h1         1 VXM       0.051700
     24 H3         -37.4690   -26.0010   -12.4770 h1         1 VXM       0.051700
     25 H4         -37.0040   -23.0160   -10.2010 ha         1 VXM       0.136000
     26 H5         -33.4340   -24.5710    -8.3580 ha         1 VXM       0.136000
     27 H6         -39.8350   -24.7530   -13.3890 ha         1 VXM       0.118000
     28 H7         -33.5050   -26.5500    -9.8650 ha         1 VXM       0.122000
     29 H8         -41.2040   -24.3790   -15.4310 ha         1 VXM       0.116000
     30 H9         -40.2250   -23.1830   -17.4110 ha         1 VXM       0.138000
     31 H10        -36.3190   -23.5990   -13.1430 hn         1 VXM       0.518000
     32 H11        -34.5540   -27.5690   -11.4920 ho         1 VXM       0.470000
@<TRIPOS>BOND
     1     1     2 1   
     2     1    11 1   
     3     1    19 2   
     4     2     3 1   
     5     2    22 1   
     6     3    12 1   
     7     3    21 2   
     8     4     5 1   
     9     4    18 1   
    10     4    23 1   
    11     4    24 1   
    12     5     6 ar  
    13     5     9 ar  
    14     6     7 ar  
    15     6    25 1   
    16     7     8 ar  
    17     7    17 1   
    18     8    14 ar  
    19     8    26 1   
    20     9    14 ar  
    21     9    20 1   
    22    10    13 ar  
    23    10    15 ar  
    24    10    27 1   
    25    11    12 ar  
    26    11    16 ar  
    27    12    13 ar  
    28    13    18 1   
    29    14    28 1   
    30    15    16 ar  
    31    15    29 1   
    32    16    30 1   
    33    18    31 1   
    34    20    32 1   
@<TRIPOS>SUBSTRUCTURE
     1 VXM         1 TEMP              0 ****  ****    0 ROOT
