@<TRIPOS>MOLECULE
VXM
   32    34     1     0     0
SMALL
abcg2


@<TRIPOS>ATOM
      1 C02        -37.4970   -22.2680   -17.4550 c          1 VXM       0.584600
      2 N03        -36.2760   -22.0060   -16.8710 ns         1 VXM      -0.486500
      3 C04        -36.1710   -22.5290   -15.5910 c          1 VXM       0.603600
      4 C08        -37.5380   -24.6420   -11.8630 c3         1 VXM       0.286100
      5 C09        -36.3960   -24.7280   -10.8930 ca         1 VXM      -0.130300
      6 C10        -36.3040   -23.8220    -9.8440 ca         1 VXM      -0.098000
      7 C11        -35.2460   -23.8910    -8.9610 ca         1 VXM       0.131000
      8 C13        -34.2600   -24.8470    -9.0900 ca         1 VXM      -0.093000
      9 C15        -35.3990   -25.6990   -11.0410 ca         1 VXM       0.149100
     10 C17        -39.1940   -24.4100   -14.2570 ca         1 VXM      -0.189000
     11 C20        -38.2600   -23.0470   -16.4440 ca         1 VXM      -0.088600
     12 C05        -37.4480   -23.2000   -15.3260 ca         1 VXM      -0.273600
     13 C06        -37.8780   -23.8910   -14.1870 ca         1 VXM       0.415000
     14 C14        -34.3430   -25.7530   -10.1370 ca         1 VXM      -0.185000
     15 C18        -39.9800   -24.2440   -15.3810 ca         1 VXM      -0.046000
     16 C19        -39.5330   -23.5540   -16.5150 ca         1 VXM      -0.111000
     17 F12        -35.1770   -23.0030    -7.9520 f          1 VXM      -0.176000
     18 N07        -37.0870   -24.0550   -13.1080 nu         1 VXM      -0.951200
     19 O01        -37.8480   -21.9240   -18.5570 o          1 VXM      -0.494000
     20 O16        -35.5130   -26.5580   -12.0720 oh         1 VXM      -0.522100
     21 O21        -35.2010   -22.4240   -14.8730 o          1 VXM      -0.527000
     22 H1         -35.5400   -21.4800   -17.3190 hn         1 VXM       0.344500
     23 H2         -38.3430   -24.0450   -11.4200 h1         1 VXM       0.051700
     24 H3         -37.9500   -25.6370   -12.0490 h1         1 VXM       0.051700
     25 H4         -37.0650   -23.0600    -9.7210 ha         1 VXM       0.136000
     26 H5         -33.4370   -24.8910    -8.3890 ha         1 VXM       0.136000
     27 H6         -39.6070   -24.9460   -13.4140 ha         1 VXM       0.118000
     28 H7         -33.5740   -26.5090   -10.2480 ha         1 VXM       0.122000
     29 H8         -40.9780   -24.6630   -15.3750 ha         1 VXM       0.116000
     30 H9         -40.1620   -23.4310   -17.3850 ha         1 VXM       0.138000
     31 H10        -36.2210   -23.5400   -13.0870 hn         1 VXM       0.518000
     32 H11        -34.7830   -27.1870   -12.0680 ho         1 VXM       0.470000
@<TRIPOS>BOND
     1     1     2 1   
     2     1    11 1   
     3     1    19 2   
     4     2     3 1   
     5     2    22 1   
     6     3    12 1   
     7     3    21 2   
     8     4     5 1   
     9     4    18 1   
    10     4    23 1   
    11     4    24 1   
    12     5     6 ar  
    13     5     9 ar  
    14     6     7 ar  
    15     6    25 1   
    16     7     8 ar  
    17     7    17 1   
    18     8    14 ar  
    19     8    26 1   
    20     9    14 ar  
    21     9    20 1   
    22    10    13 ar  
    23    10    15 ar  
    24    10    27 1   
    25    11    12 ar  
    26    11    16 ar  
    27    12    13 ar  
    28    13    18 1   
    29    14    28 1   
    30    15    16 ar  
    31    15    29 1   
    32    16    30 1   
    33    18    31 1   
    34    20    32 1   
@<TRIPOS>SUBSTRUCTURE
     1 VXM         1 TEMP              0 ****  ****    0 ROOT
