@<TRIPOS>MOLECULE
VXN
   15    15     1     0     0
SMALL
abcg2


@<TRIPOS>ATOM
      1 C5         -43.7490    14.9550    35.1870 ca         1 VXN      -0.215500
      2 C3         -45.2360    15.1320    33.3000 ca         1 VXN      -0.144500
      3 C1         -45.0440    16.9600    34.8650 ca         1 VXN      -0.144500
      4 C4         -44.3130    14.4100    34.0380 ca         1 VXN      -0.017500
      5 C2         -45.5950    16.4040    33.7240 ca         1 VXN       0.133000
      6 C          -44.1190    16.2270    35.5970 ca         1 VXN      -0.017500
      7 O          -41.5780    13.5280    35.1420 o          1 VXN      -0.691533
      8 O1         -43.3590    12.8800    36.7030 o          1 VXN      -0.691533
      9 O2         -42.0260    14.9050    37.1410 o          1 VXN      -0.691533
     10 S          -42.5700    13.9820    36.1310 s6         1 VXN       1.261100
     11 CL         -46.7480    17.3130    32.8030 cl         1 VXN      -0.258000
     12 H1         -45.6700    14.7080    32.4040 ha         1 VXN       0.107500
     13 H2         -45.3260    17.9550    35.1850 ha         1 VXN       0.107500
     14 H3         -44.0320    13.4210    33.7000 ha         1 VXN       0.131500
     15 H4         -43.6870    16.6640    36.4880 ha         1 VXN       0.131500
@<TRIPOS>BOND
     1     1     4 ar  
     2     1     6 ar  
     3     1    10 1   
     4     2     4 ar  
     5     2     5 ar  
     6     2    12 1   
     7     3     5 ar  
     8     3     6 ar  
     9     3    13 1   
    10     4    14 1   
    11     5    11 1   
    12     6    15 1   
    13     7    10 1   
    14     8    10 1   
    15     9    10 1   
@<TRIPOS>SUBSTRUCTURE
     1 VXN         1 TEMP              0 ****  ****    0 ROOT
