@<TRIPOS>MOLECULE
VXN
   15    15     1     0     0
SMALL
No Charge or Current Charge


@<TRIPOS>ATOM
      1 C5         -43.7330    14.9320    35.1890 ca         1 VXN      -0.215500
      2 C3         -45.1790    15.1740    33.2340 ca         1 VXN      -0.144500
      3 C1         -45.1140    16.9300    34.9130 ca         1 VXN      -0.144500
      4 C4         -44.2450    14.4280    33.9740 ca         1 VXN      -0.017500
      5 C2         -45.6110    16.4230    33.7030 ca         1 VXN       0.133000
      6 C          -44.1790    16.1880    35.6570 ca         1 VXN      -0.017500
      7 O          -41.8050    13.1900    35.1270 o          1 VXN      -0.691533
      8 O1         -43.4080    13.1580    37.0330 o          1 VXN      -0.691533
      9 O2         -41.7380    14.9970    36.8540 o          1 VXN      -0.691533
     10 S          -42.5110    13.9460    36.1740 s6         1 VXN       1.261100
     11 Cl         -46.7800    17.3540    32.7760 cl         1 VXN      -0.258000
     12 H1         -45.5690    14.7810    32.2980 ha         1 VXN       0.107500
     13 H2         -45.4520    17.8970    35.2770 ha         1 VXN       0.107500
     14 H3         -43.9230    13.4570    33.6020 ha         1 VXN       0.131500
     15 H4         -43.8060    16.5900    36.5970 ha         1 VXN       0.131500
@<TRIPOS>BOND
     1     1     4 ar  
     2     1     6 ar  
     3     1    10 1   
     4     2     4 ar  
     5     2     5 ar  
     6     2    12 1   
     7     3     5 ar  
     8     3     6 ar  
     9     3    13 1   
    10     4    14 1   
    11     5    11 1   
    12     6    15 1   
    13     7    10 1   
    14     8    10 1   
    15     9    10 1   
@<TRIPOS>SUBSTRUCTURE
     1 VXN         1 TEMP              0 ****  ****    0 ROOT
