@<TRIPOS>MOLECULE
VXO
   59    62     1     0     0
SMALL
bcc


@<TRIPOS>ATOM
      1 C1          -6.7350     0.9560     1.3410 ca         1 VXO      -0.169000
      2 C2          -7.7900     0.0660     1.0740 ca         1 VXO      -0.114000
      3 C3          -5.5450     0.8770     0.6460 ca         1 VXO      -0.059000
      4 C4           2.7580    -1.3010     2.1260 ca         1 VXO      -0.150000
      5 C5          -7.6750    -0.9140     0.1070 ca         1 VXO      -0.155000
      6 C6           3.2770    -2.5870     1.9300 ca         1 VXO      -0.146000
      7 C7          -4.8020    -1.5140    -1.9710 cc         1 VXO      -0.108100
      8 C8          -5.4000    -0.1020    -0.3430 ca         1 VXO      -0.078800
      9 C9           3.8620    -0.4360     0.1420 ca         1 VXO      -0.095600
     10 C10          3.0360    -0.2400     1.2710 ca         1 VXO      -0.070300
     11 C11         -4.3400    -0.4600    -1.2360 cd         1 VXO      -0.110400
     12 C12         -6.4730    -0.9870    -0.5960 ca         1 VXO      -0.048200
     13 C13          4.0710    -2.7570     0.8260 ca         1 VXO       0.027100
     14 C14          4.3350    -1.7140    -0.0450 ca         1 VXO       0.062100
     15 C16         -2.1190    -0.0040    -0.1410 c          1 VXO       0.659100
     16 C17          5.2250    -3.5650    -0.8830 c5         1 VXO       0.323200
     17 C20         -3.0120     0.1970    -1.3580 c3         1 VXO      -0.089200
     18 C21          2.4010     1.1020     1.5160 c3         1 VXO      -0.017100
     19 C22          0.8960     2.9170     0.6150 c3         1 VXO      -0.063400
     20 C23          0.0610     0.5430     0.8340 c3         1 VXO       0.103000
     21 C24          1.8870     3.8720    -0.0590 c3         1 VXO      -0.067700
     22 C25          1.2620     1.4330     0.5360 c3         1 VXO      -0.081700
     23 N26         -6.0750    -1.8330    -1.5890 na         1 VXO      -0.177400
     24 N27         -0.9480     0.6500    -0.1980 ns         1 VXO      -0.570900
     25 O28          4.8810     1.6280    -0.3460 o          1 VXO      -0.814800
     26 O29          3.9170     0.4950    -2.0140 o          1 VXO      -0.814800
     27 O30         -2.4370    -0.6970     0.8120 o          1 VXO      -0.606100
     28 O31          4.7290    -3.8730     0.4120 os         1 VXO      -0.345900
     29 O32          5.1760    -2.1550    -1.0220 os         1 VXO      -0.294900
     30 H1          -6.8600     1.7090     2.1080 ha         1 VXO       0.123000
     31 H2          -8.7100     0.1500     1.6380 ha         1 VXO       0.118000
     32 H3          -4.7380     1.5670     0.8620 ha         1 VXO       0.137000
     33 H5          -8.4890    -1.5990    -0.0960 ha         1 VXO       0.122000
     34 H4           2.1070    -1.1280     2.9740 ha         1 VXO       0.114000
     35 H6           3.0620    -3.3950     2.6170 ha         1 VXO       0.127000
     36 H7          -4.3090    -2.0680    -2.7540 h4         1 VXO       0.160000
     37 H26         -6.6300    -2.5650    -1.9970 hn         1 VXO       0.292700
     38 H211         2.0040     1.1360     2.5360 hc         1 VXO       0.053200
     39 H212         3.1610     1.8800     1.4500 hc         1 VXO       0.053200
     40 H201        -2.4860    -0.1870    -2.2370 hc         1 VXO       0.058700
     41 H202        -3.1250     1.2730    -1.5290 hc         1 VXO       0.058700
     42 H27         -0.7180     1.1560    -1.0390 hn         1 VXO       0.315500
     43 H171         6.2550    -3.9110    -0.9770 h2         1 VXO       0.042200
     44 H172         4.5940    -4.0390    -1.6450 h2         1 VXO       0.042200
     45 H181         2.2160     2.7090    -1.8790 hc         1 VXO       0.027867
     46 H182         0.9030     3.8930    -1.9930 hc         1 VXO       0.027867
     47 H183         2.5850     4.4160    -2.0370 hc         1 VXO       0.027867
     48 H24          2.8950     3.6470     0.3040 hc         1 VXO       0.085700
     49 H191         0.5510     5.5820    -0.0250 hc         1 VXO       0.027867
     50 H192         1.5850     5.4610     1.3980 hc         1 VXO       0.027867
     51 H193         2.2560     6.0150    -0.1350 hc         1 VXO       0.027867
     52 H25          1.6080     1.2010    -0.4790 hc         1 VXO       0.090700
     53 H221         0.7950     3.1860     1.6730 hc         1 VXO       0.023200
     54 H222        -0.0930     3.0900     0.1740 hc         1 VXO       0.023200
     55 H231         0.3850    -0.4980     0.9290 h1         1 VXO       0.048700
     56 H232        -0.3680     0.8260     1.8010 h1         1 VXO       0.048700
     57 C15          4.2500     0.6720    -0.8290 c          1 VXO       0.935200
     58 C18          1.8970     3.7060    -1.5750 c3         1 VXO      -0.085100
     59 C19          1.5540     5.3130     0.3170 c3         1 VXO      -0.085100
@<TRIPOS>BOND
     1     1     2 ar  
     2     1     3 ar  
     3     1    30 1   
     4     2     5 ar  
     5     2    31 1   
     6     3     8 ar  
     7     3    32 1   
     8     4     6 ar  
     9     4    10 ar  
    10     4    34 1   
    11     5    12 ar  
    12     5    33 1   
    13     6    13 ar  
    14     6    35 1   
    15     7    11 2   
    16     7    23 1   
    17     7    36 1   
    18     8    11 1   
    19     8    12 ar  
    20     9    10 ar  
    21     9    14 ar  
    22     9    57 1   
    23    10    18 1   
    24    11    17 1   
    25    12    23 1   
    26    13    14 ar  
    27    13    28 1   
    28    14    29 1   
    29    15    17 1   
    30    15    24 1   
    31    15    27 2   
    32    16    28 1   
    33    16    29 1   
    34    16    43 1   
    35    16    44 1   
    36    17    40 1   
    37    17    41 1   
    38    18    22 1   
    39    18    38 1   
    40    18    39 1   
    41    19    21 1   
    42    19    22 1   
    43    19    53 1   
    44    19    54 1   
    45    20    22 1   
    46    20    24 1   
    47    20    55 1   
    48    20    56 1   
    49    21    48 1   
    50    21    58 1   
    51    21    59 1   
    52    22    52 1   
    53    23    37 1   
    54    24    42 1   
    55    25    57 1   
    56    26    57 1   
    57    45    58 1   
    58    46    58 1   
    59    47    58 1   
    60    49    59 1   
    61    50    59 1   
    62    51    59 1   
@<TRIPOS>SUBSTRUCTURE
     1 VXO         1 TEMP              0 ****  ****    0 ROOT
