@<TRIPOS>MOLECULE
VXO
   59    62     1     0     0
SMALL
No Charge or Current Charge


@<TRIPOS>ATOM
      1 C1          -5.7370    -0.3180     1.9520 ca         1 VXO      -0.151000
      2 C2          -6.6180    -1.3600     1.5700 ca         1 VXO      -0.096000
      3 C3          -4.8560     0.2560     1.0090 ca         1 VXO      -0.041000
      4 C4           2.3060    -0.8400     2.3960 ca         1 VXO      -0.132000
      5 C5          -6.6260    -1.8360     0.2410 ca         1 VXO      -0.137000
      6 C6           2.5490    -2.2220     2.5190 ca         1 VXO      -0.128000
      7 C7          -4.5560    -0.6900    -2.5480 cc         1 VXO      -0.158100
      8 C8          -4.8910    -0.2420    -0.3010 ca         1 VXO      -0.078800
      9 C9           3.3680    -0.8200     0.1800 ca         1 VXO      -0.095600
     10 C10          2.7040    -0.1290     1.2340 ca         1 VXO      -0.070300
     11 C11         -4.1420     0.1080    -1.4870 cd         1 VXO      -0.110400
     12 C12         -5.7410    -1.2460    -0.6710 ca         1 VXO      -0.048200
     13 C13          3.1910    -2.8710     1.4610 ca         1 VXO       0.027100
     14 C14          3.5860    -2.1990     0.3380 ca         1 VXO       0.062100
     15 C16         -1.7160     0.6920    -1.0160 c          1 VXO       0.592100
     16 C17          4.0760    -4.3400     0.0720 c5         1 VXO       0.369600
     17 C20         -3.0690     1.1680    -1.5640 c3         1 VXO      -0.089200
     18 C21          2.4040     1.3690     1.1470 c3         1 VXO      -0.017100
     19 C22          0.8350     3.2480     0.2930 c3         1 VXO      -0.063400
     20 C23         -0.1110     0.9340     0.9160 c3         1 VXO       0.103000
     21 C24          1.9470     4.1510    -0.3160 c3         1 VXO      -0.067700
     22 C25          1.1120     1.7100     0.3470 c3         1 VXO      -0.081700
     23 N26         -5.5570    -1.5290    -2.0120 na         1 VXO      -0.227700
     24 N27         -1.3680     1.2100     0.2130 ns         1 VXO      -0.503900
     25 O28          4.8750     0.5340    -0.9990 o          1 VXO      -0.709500
     26 O29          3.2140    -0.2920    -2.1010 o          1 VXO      -0.709500
     27 O30         -0.9970    -0.0900    -1.6230 o          1 VXO      -0.606100
     28 O31          3.5200    -4.1870     1.4250 os         1 VXO      -0.369100
     29 O32          4.2230    -3.0150    -0.5440 os         1 VXO      -0.318100
     30 H1          -5.7390     0.0420     2.9780 ha         1 VXO       0.105000
     31 H2          -7.2920    -1.7950     2.3040 ha         1 VXO       0.100000
     32 H3          -4.1790     1.0570     1.2930 ha         1 VXO       0.119000
     33 H5          -7.2990    -2.6350    -0.0630 ha         1 VXO       0.104000
     34 H4           1.8030    -0.3180     3.2070 ha         1 VXO       0.096000
     35 H6           2.2480    -2.7690     3.4090 ha         1 VXO       0.109000
     36 H7          -4.2340    -0.7300    -3.5840 h4         1 VXO       0.210000
     37 H26         -6.0690    -2.2380    -2.5290 hn         1 VXO       0.343000
     38 H211         2.3120     1.7880     2.1570 hc         1 VXO       0.053200
     39 H212         3.2630     1.8810     0.7010 hc         1 VXO       0.053200
     40 H201        -2.9270     1.4540    -2.6130 hc         1 VXO       0.058700
     41 H202        -3.4040     2.0480    -1.0030 hc         1 VXO       0.058700
     42 H27         -2.0220     1.8550     0.6380 hn         1 VXO       0.315500
     43 H171         5.0520    -4.8360     0.1240 h2         1 VXO       0.042200
     44 H172         3.3800    -4.9360    -0.5320 h2         1 VXO       0.042200
     45 H181         2.7490     2.7500    -1.8040 hc         1 VXO       0.027867
     46 H182         1.4330     3.7790    -2.4150 hc         1 VXO       0.027867
     47 H183         3.0620     4.4490    -2.1770 hc         1 VXO       0.027867
     48 H24          2.8510     4.0530     0.2970 hc         1 VXO       0.085700
     49 H191         0.6410     5.8290    -0.8490 hc         1 VXO       0.027867
     50 H192         1.3250     5.9370     0.7880 hc         1 VXO       0.027867
     51 H193         2.3440     6.2830    -0.6210 hc         1 VXO       0.027867
     52 H25          1.2560     1.3550    -0.6800 hc         1 VXO       0.090700
     53 H221         0.6240     3.5950     1.3120 hc         1 VXO       0.023200
     54 H222        -0.0810     3.4260    -0.2830 hc         1 VXO       0.023200
     55 H231         0.0760    -0.1470     0.8640 h1         1 VXO       0.048700
     56 H232        -0.2450     1.1970     1.9730 h1         1 VXO       0.048700
     57 C15          3.8500    -0.1310    -1.0680 c          1 VXO       0.724600
     58 C18          2.3170     3.7560    -1.7660 c3         1 VXO      -0.085100
     59 C19          1.5380     5.6410    -0.2460 c3         1 VXO      -0.085100
@<TRIPOS>BOND
     1     1     2 ar  
     2     1     3 ar  
     3     1    30 1   
     4     2     5 ar  
     5     2    31 1   
     6     3     8 ar  
     7     3    32 1   
     8     4     6 ar  
     9     4    10 ar  
    10     4    34 1   
    11     5    12 ar  
    12     5    33 1   
    13     6    13 ar  
    14     6    35 1   
    15     7    11 2   
    16     7    23 1   
    17     7    36 1   
    18     8    11 1   
    19     8    12 ar  
    20     9    10 ar  
    21     9    14 ar  
    22     9    57 1   
    23    10    18 1   
    24    11    17 1   
    25    12    23 1   
    26    13    14 ar  
    27    13    28 1   
    28    14    29 1   
    29    15    17 1   
    30    15    24 1   
    31    15    27 2   
    32    16    28 1   
    33    16    29 1   
    34    16    43 1   
    35    16    44 1   
    36    17    40 1   
    37    17    41 1   
    38    18    22 1   
    39    18    38 1   
    40    18    39 1   
    41    19    21 1   
    42    19    22 1   
    43    19    53 1   
    44    19    54 1   
    45    20    22 1   
    46    20    24 1   
    47    20    55 1   
    48    20    56 1   
    49    21    48 1   
    50    21    58 1   
    51    21    59 1   
    52    22    52 1   
    53    23    37 1   
    54    24    42 1   
    55    25    57 1   
    56    26    57 1   
    57    45    58 1   
    58    46    58 1   
    59    47    58 1   
    60    49    59 1   
    61    50    59 1   
    62    51    59 1   
@<TRIPOS>SUBSTRUCTURE
     1 VXO         1 TEMP              0 ****  ****    0 ROOT
