@<TRIPOS>MOLECULE
VXP
   32    34     1     0     0
SMALL
No Charge or Current Charge


@<TRIPOS>ATOM
      1 C10         13.0910  -104.9460   -38.1810 ca         1 VXP      -0.121000
      2 C11         13.5100  -104.4950   -36.9190 ca         1 VXP       0.159000
      3 C13         13.9910  -103.1860   -36.7590 ca         1 VXP      -0.195000
      4 C14         14.0510  -102.3270   -37.8660 ca         1 VXP       0.152100
      5 C16         13.6320  -102.7750   -39.1300 ca         1 VXP      -0.131000
      6 C17         10.9140  -105.4070   -43.0020 ca         1 VXP      -0.190000
      7 C18         10.0890  -105.6320   -44.1330 ca         1 VXP      -0.046000
      8 C19          8.8000  -105.0620   -44.2050 ca         1 VXP      -0.108000
      9 C20          8.3730  -104.2750   -43.1260 ca         1 VXP      -0.088600
     10 C02          7.0880  -103.5470   -42.9030 c          1 VXP       0.584600
     11 C04          8.4530  -103.1940   -41.0680 c          1 VXP       0.602600
     12 C05          9.1910  -104.0590   -42.0200 ca         1 VXP      -0.269600
     13 C06         10.4660  -104.6100   -41.9270 ca         1 VXP       0.410000
     14 C09         13.1510  -104.0890   -39.2980 ca         1 VXP      -0.072300
     15 N03          7.2590  -102.9640   -41.6830 ns         1 VXP      -0.486500
     16 N07         11.2460  -104.3700   -40.8040 nu         1 VXP      -0.960200
     17 O15         14.5140  -101.0530   -37.7230 oh         1 VXP      -0.528100
     18 O21          8.8160  -102.7740   -39.9820 o          1 VXP      -0.524000
     19 Cl12        13.4300  -105.5720   -35.5320 cl         1 VXP      -0.194000
     20 H1          12.7160  -105.9610   -38.2910 ha         1 VXP       0.139000
     21 H2          14.3120  -102.8500   -35.7760 ha         1 VXP       0.132000
     22 H3          13.6800  -102.0990   -39.9800 ha         1 VXP       0.135000
     23 H4          11.8990  -105.8600   -42.9700 ha         1 VXP       0.118000
     24 H5          10.4510  -106.2500   -44.9520 ha         1 VXP       0.117000
     25 H6           8.1590  -105.2290   -45.0680 ha         1 VXP       0.139000
     26 H7          12.9400  -105.6390   -40.7780 h1         1 VXP       0.051200
     27 H8          13.2300  -104.0220   -41.4490 h1         1 VXP       0.051200
     28 H9           6.5440  -102.3950   -41.2580 hn         1 VXP       0.345500
     29 H10         10.8010  -103.7760   -40.1000 hn         1 VXP       0.520000
     30 H11         14.7590  -100.9140   -36.7830 ho         1 VXP       0.472000
     31 C08         12.6920  -104.5740   -40.6660 c3         1 VXP       0.273100
     32 O01          6.1060  -103.4760   -43.6260 o          1 VXP      -0.491000
@<TRIPOS>BOND
     1     1     2 ar  
     2     1    14 ar  
     3     1    20 1   
     4     2     3 ar  
     5     2    19 1   
     6     3     4 ar  
     7     3    21 1   
     8     4     5 ar  
     9     4    17 1   
    10     5    14 ar  
    11     5    22 1   
    12     6     7 ar  
    13     6    13 ar  
    14     6    23 1   
    15     7     8 ar  
    16     7    24 1   
    17     8     9 ar  
    18     8    25 1   
    19     9    10 1   
    20     9    12 ar  
    21    10    15 1   
    22    10    32 2   
    23    11    12 1   
    24    11    15 1   
    25    11    18 2   
    26    12    13 ar  
    27    13    16 1   
    28    14    31 1   
    29    15    28 1   
    30    16    29 1   
    31    16    31 1   
    32    17    30 1   
    33    26    31 1   
    34    27    31 1   
@<TRIPOS>SUBSTRUCTURE
     1 VXP         1 TEMP              0 ****  ****    0 ROOT
