@<TRIPOS>MOLECULE
VXP
   32    34     1     0     0
SMALL
bcc


@<TRIPOS>ATOM
      1 C10         12.8180  -104.8130   -38.2730 ca         1 VXP      -0.139000
      2 C11         13.2460  -104.4620   -37.0060 ca         1 VXP       0.067400
      3 C13         13.9860  -103.3140   -36.7680 ca         1 VXP      -0.213000
      4 C14         14.3070  -102.4910   -37.8420 ca         1 VXP       0.152100
      5 C16         13.8870  -102.8280   -39.1290 ca         1 VXP      -0.149000
      6 C17         10.9830  -105.2130   -42.9470 ca         1 VXP      -0.208000
      7 C18         10.1720  -105.5910   -44.0020 ca         1 VXP      -0.064000
      8 C19          8.8290  -105.2050   -44.0900 ca         1 VXP      -0.126000
      9 C20          8.3610  -104.4220   -43.0650 ca         1 VXP      -0.088600
     10 C02          7.0080  -103.8400   -42.8630 c          1 VXP       0.727100
     11 C04          8.3410  -103.2030   -41.0970 c          1 VXP       0.745100
     12 C05          9.1540  -104.0320   -41.9930 ca         1 VXP      -0.269600
     13 C06         10.4950  -104.4170   -41.8830 ca         1 VXP       0.271600
     14 C09         13.1520  -103.9820   -39.3410 ca         1 VXP      -0.072300
     15 N03          7.0850  -103.1370   -41.6790 ns         1 VXP      -0.620500
     16 N07         11.2560  -104.0600   -40.8280 nu         1 VXP      -0.766600
     17 O15         15.0170  -101.3600   -37.6960 oh         1 VXP      -0.489100
     18 O21          8.6570  -102.6660   -40.0580 o          1 VXP      -0.599500
     19 CL12        12.8520  -105.4870   -35.6660 cl         1 VXP      -0.102400
     20 H1          12.2440  -105.7160   -38.4340 ha         1 VXP       0.157000
     21 H2          14.3070  -103.0650   -35.7630 ha         1 VXP       0.150000
     22 H3          14.1410  -102.1810   -39.9600 ha         1 VXP       0.153000
     23 H4          12.0140  -105.5380   -42.9500 ha         1 VXP       0.136000
     24 H5          10.6020  -106.2010   -44.7850 ha         1 VXP       0.135000
     25 H6           8.2070  -105.5080   -44.9200 ha         1 VXP       0.157000
     26 H7          12.8570  -105.3920   -40.9110 h1         1 VXP       0.051200
     27 H8          13.2450  -103.7700   -41.4710 h1         1 VXP       0.051200
     28 H9           6.3130  -102.6190   -41.2830 hn         1 VXP       0.345500
     29 H10         10.8700  -103.3800   -40.1930 hn         1 VXP       0.464800
     30 H11         15.2410  -101.2140   -36.7690 ho         1 VXP       0.433000
     31 C08         12.6740  -104.3310   -40.7240 c3         1 VXP       0.273100
     32 O01          6.0340  -103.9450   -43.5670 o          1 VXP      -0.566500
@<TRIPOS>BOND
     1     1     2 ar  
     2     1    14 ar  
     3     1    20 1   
     4     2     3 ar  
     5     2    19 1   
     6     3     4 ar  
     7     3    21 1   
     8     4     5 ar  
     9     4    17 1   
    10     5    14 ar  
    11     5    22 1   
    12     6     7 ar  
    13     6    13 ar  
    14     6    23 1   
    15     7     8 ar  
    16     7    24 1   
    17     8     9 ar  
    18     8    25 1   
    19     9    10 1   
    20     9    12 ar  
    21    10    15 1   
    22    10    32 2   
    23    11    12 1   
    24    11    15 1   
    25    11    18 2   
    26    12    13 ar  
    27    13    16 1   
    28    14    31 1   
    29    15    28 1   
    30    16    29 1   
    31    16    31 1   
    32    17    30 1   
    33    26    31 1   
    34    27    31 1   
@<TRIPOS>SUBSTRUCTURE
     1 VXP         1 TEMP              0 ****  ****    0 ROOT
