@<TRIPOS>MOLECULE
VXQ
   22    23     1     0     0
SMALL
No Charge or Current Charge


@<TRIPOS>ATOM
      1 N            3.6880    -0.3680    -0.8110 n8         1 VXQ      -0.999200
      2 C5          -2.0000    -1.5260     0.2030 c5         1 VXQ      -0.051100
      3 CB           2.9880    -0.2800     0.4810 c3         1 VXQ       0.203100
      4 OE          -2.5340     0.8520    -0.1900 os         1 VXQ      -0.333100
      5 CG           1.5170     0.0550     0.2870 ca         1 VXQ      -0.127300
      6 CM          -3.0750    -0.5060    -0.3320 c5         1 VXQ       0.147600
      7 CZ          -1.1860     0.6780    -0.0550 ca         1 VXQ       0.126100
      8 CD1          0.5420    -0.9680     0.3380 ca         1 VXQ      -0.056000
      9 CD2          1.1160     1.3960     0.0700 ca         1 VXQ      -0.052000
     10 CE1         -0.8080    -0.6250     0.1620 ca         1 VXQ      -0.176300
     11 CE2         -0.2470     1.7140    -0.0990 ca         1 VXQ      -0.141000
     12 HN           4.6500    -0.6870    -0.6450 hn         1 VXQ       0.395500
     13 HNA          3.2690    -1.1300    -1.3560 hn         1 VXQ       0.395500
     14 H5A         -1.9050    -2.4070    -0.4420 hc         1 VXQ       0.060700
     15 HB           3.0880    -1.2410     1.0050 h1         1 VXQ       0.032200
     16 HBA          3.4690     0.4960     1.0940 h1         1 VXQ       0.032200
     17 HM          -3.2650    -0.6820    -1.3990 h1         1 VXQ       0.056200
     18 HMA         -4.0330    -0.5840     0.1990 h1         1 VXQ       0.056200
     19 HD1          0.8290    -2.0030     0.5140 ha         1 VXQ       0.110000
     20 HD2          1.8620     2.1870     0.0340 ha         1 VXQ       0.130000
     21 HE2         -0.5640     2.7410    -0.2630 ha         1 VXQ       0.130000
     22 H5          -2.2290    -1.8660     1.2190 hc         1 VXQ       0.060700
@<TRIPOS>BOND
     1     1     3 1   
     2     1    12 1   
     3     1    13 1   
     4     2     6 1   
     5     2    10 1   
     6     2    14 1   
     7     2    22 1   
     8     3     5 1   
     9     3    15 1   
    10     3    16 1   
    11     4     6 1   
    12     4     7 1   
    13     5     8 ar  
    14     5     9 ar  
    15     6    17 1   
    16     6    18 1   
    17     7    10 ar  
    18     7    11 ar  
    19     8    10 ar  
    20     8    19 1   
    21     9    11 ar  
    22     9    20 1   
    23    11    21 1   
@<TRIPOS>SUBSTRUCTURE
     1 VXQ         1 TEMP              0 ****  ****    0 ROOT
