@<TRIPOS>MOLECULE
VXQ
   22    23     1     0     0
SMALL
abcg2


@<TRIPOS>ATOM
      1 N            3.8100     0.0740    -0.6050 n8         1 VXQ      -0.999200
      2 C5          -2.1090    -1.4540     0.3350 c5         1 VXQ      -0.051100
      3 CB           2.9510    -0.4790     0.4300 c3         1 VXQ       0.203100
      4 OE          -2.4760     0.8320    -0.2560 os         1 VXQ      -0.333100
      5 CG           1.5060    -0.1010     0.2190 ca         1 VXQ      -0.127300
      6 CM          -3.1180    -0.4570    -0.2560 c5         1 VXQ       0.147600
      7 CZ          -1.1470     0.6260    -0.1230 ca         1 VXQ       0.126100
      8 CD1          0.4940    -1.0520     0.3690 ca         1 VXQ      -0.056000
      9 CD2          1.1540     1.2090    -0.1060 ca         1 VXQ      -0.052000
     10 CE1         -0.8270    -0.6850     0.1970 ca         1 VXQ      -0.176300
     11 CE2         -0.1710     1.5950    -0.2820 ca         1 VXQ      -0.141000
     12 HN           4.7750    -0.1390    -0.3880 hn         1 VXQ       0.395500
     13 HNA          3.6120    -0.3840    -1.4860 hn         1 VXQ       0.395500
     14 H5A         -2.1120    -2.3980    -0.2090 hc         1 VXQ       0.060700
     15 HB           3.0160    -1.5720     0.5240 h1         1 VXQ       0.032200
     16 HBA          3.2900    -0.0770     1.3900 h1         1 VXQ       0.032200
     17 HM          -3.3710    -0.7180    -1.2860 h1         1 VXQ       0.056200
     18 HMA         -4.0400    -0.3800     0.3180 h1         1 VXQ       0.056200
     19 HD1          0.7480    -2.0770     0.6160 ha         1 VXQ       0.110000
     20 HD2          1.9370     1.9460    -0.2350 ha         1 VXQ       0.130000
     21 HE2         -0.4260     2.6160    -0.5360 ha         1 VXQ       0.130000
     22 H5          -2.3230    -1.6780     1.3820 hc         1 VXQ       0.060700
@<TRIPOS>BOND
     1     1     3 1   
     2     1    12 1   
     3     1    13 1   
     4     2     6 1   
     5     2    10 1   
     6     2    14 1   
     7     2    22 1   
     8     3     5 1   
     9     3    15 1   
    10     3    16 1   
    11     4     6 1   
    12     4     7 1   
    13     5     8 ar  
    14     5     9 ar  
    15     6    17 1   
    16     6    18 1   
    17     7    10 ar  
    18     7    11 ar  
    19     8    10 ar  
    20     8    19 1   
    21     9    11 ar  
    22     9    20 1   
    23    11    21 1   
@<TRIPOS>SUBSTRUCTURE
     1 VXQ         1 TEMP              0 ****  ****    0 ROOT
