@<TRIPOS>MOLECULE
VXS
   38    40     1     0     0
SMALL
abcg2


@<TRIPOS>ATOM
      1 C10         43.5560    -7.9690   -36.8240 c3         1 VXS      -0.022100
      2 C11         43.4110    -6.4700   -36.8950 ca         1 VXS      -0.103300
      3 C12         42.8260    -5.8090   -37.9690 ca         1 VXS      -0.080000
      4 C13         42.7080    -4.4230   -38.0070 ca         1 VXS      -0.144000
      5 C14         43.1850    -3.6700   -36.9470 ca         1 VXS      -0.071000
      6 C15         43.7740    -4.3010   -35.8600 ca         1 VXS      -0.202000
      7 C16         43.8860    -5.6870   -35.8330 ca         1 VXS       0.136100
      8 C18         43.5700   -12.9470   -36.8210 ca         1 VXS      -0.188000
      9 C19         43.6880   -14.2300   -36.3250 ca         1 VXS      -0.047000
     10 C20         42.8560   -14.7230   -35.3110 ca         1 VXS      -0.110000
     11 C21         41.9080   -13.8510   -34.8380 ca         1 VXS      -0.088600
     12 C02         40.8780   -14.0580   -33.7860 c          1 VXS       0.585600
     13 C04         40.6640   -11.9140   -34.5980 c          1 VXS       0.603600
     14 C05         41.7700   -12.5540   -35.3180 ca         1 VXS      -0.273600
     15 C06         42.5980   -12.0420   -36.3250 ca         1 VXS       0.413000
     16 C08         43.2130   -10.2380   -37.8970 c3         1 VXS       0.223800
     17 C09         42.9970    -8.7370   -38.0140 c3         1 VXS      -0.091400
     18 N03         40.1900   -12.8660   -33.7080 ns         1 VXS      -0.486500
     19 N07         42.4810   -10.7770   -36.7730 nu         1 VXS      -0.957200
     20 O17         44.4530    -6.3370   -34.7940 oh         1 VXS      -0.536100
     21 O22         40.2210   -10.7930   -34.7210 o          1 VXS      -0.527000
     22 H1          43.0850    -8.3260   -35.9030 hc         1 VXS       0.061700
     23 H2          44.6170    -8.2210   -36.7160 hc         1 VXS       0.061700
     24 H3          42.4460    -6.3810   -38.8060 ha         1 VXS       0.111000
     25 H4          42.2470    -3.9440   -38.8600 ha         1 VXS       0.116000
     26 H5          43.1020    -2.5910   -36.9570 ha         1 VXS       0.113000
     27 H6          44.1500    -3.7140   -35.0290 ha         1 VXS       0.113000
     28 H7          44.2400   -12.6360   -37.6100 ha         1 VXS       0.118000
     29 H8          44.4500   -14.8740   -36.7450 ha         1 VXS       0.116000
     30 H9          42.9590   -15.7310   -34.9350 ha         1 VXS       0.138000
     31 H10         42.9100   -10.7240   -38.8310 h1         1 VXS       0.042700
     32 H11         44.2810   -10.4350   -37.7670 h1         1 VXS       0.042700
     33 H12         43.4830    -8.4110   -38.9360 hc         1 VXS       0.051200
     34 H13         41.9290    -8.5330   -38.1410 hc         1 VXS       0.051200
     35 H14         39.4170   -12.7060   -33.0780 hn         1 VXS       0.344500
     36 H15         41.6760   -10.2580   -36.4590 hn         1 VXS       0.515000
     37 H16         44.7210    -5.7080   -34.1140 ho         1 VXS       0.464000
     38 O01         40.6680   -15.0460   -33.1280 o          1 VXS      -0.493000
@<TRIPOS>BOND
     1     1     2 1   
     2     1    17 1   
     3     1    22 1   
     4     1    23 1   
     5     2     3 ar  
     6     2     7 ar  
     7     3     4 ar  
     8     3    24 1   
     9     4     5 ar  
    10     4    25 1   
    11     5     6 ar  
    12     5    26 1   
    13     6     7 ar  
    14     6    27 1   
    15     7    20 1   
    16     8     9 ar  
    17     8    15 ar  
    18     8    28 1   
    19     9    10 ar  
    20     9    29 1   
    21    10    11 ar  
    22    10    30 1   
    23    11    12 1   
    24    11    14 ar  
    25    12    18 1   
    26    12    38 2   
    27    13    14 1   
    28    13    18 1   
    29    13    21 2   
    30    14    15 ar  
    31    15    19 1   
    32    16    17 1   
    33    16    19 1   
    34    16    31 1   
    35    16    32 1   
    36    17    33 1   
    37    17    34 1   
    38    18    35 1   
    39    19    36 1   
    40    20    37 1   
@<TRIPOS>SUBSTRUCTURE
     1 VXS         1 TEMP              0 ****  ****    0 ROOT
