@<TRIPOS>MOLECULE
VXS
   38    40     1     0     0
SMALL
No Charge or Current Charge


@<TRIPOS>ATOM
      1 C10         43.6530    -7.8840   -36.7760 c3         1 VXS      -0.022100
      2 C11         43.4240    -6.3650   -36.8720 ca         1 VXS      -0.103300
      3 C12         42.6280    -5.7840   -37.8890 ca         1 VXS      -0.080000
      4 C13         42.4410    -4.3930   -37.9440 ca         1 VXS      -0.144000
      5 C14         43.0410    -3.5590   -36.9890 ca         1 VXS      -0.071000
      6 C15         43.8310    -4.1210   -35.9750 ca         1 VXS      -0.202000
      7 C16         44.0220    -5.5110   -35.9140 ca         1 VXS       0.136100
      8 C18         43.6490   -13.1110   -36.7630 ca         1 VXS      -0.188000
      9 C19         43.6400   -14.4640   -36.3400 ca         1 VXS      -0.047000
     10 C20         42.6900   -14.9140   -35.3990 ca         1 VXS      -0.110000
     11 C21         41.7670   -13.9820   -34.9060 ca         1 VXS      -0.088600
     12 C02         40.6560   -14.1410   -33.9180 c          1 VXS       0.585600
     13 C04         40.6920   -11.9380   -34.6270 c          1 VXS       0.603600
     14 C05         41.7840   -12.6550   -35.3280 ca         1 VXS      -0.273600
     15 C06         42.7110   -12.1880   -36.2560 ca         1 VXS       0.413000
     16 C08         43.3760   -10.2520   -37.7960 c3         1 VXS       0.223800
     17 C09         43.0450    -8.7500   -37.9110 c3         1 VXS      -0.091400
     18 N03         40.1140   -12.8920   -33.8450 ns         1 VXS      -0.486500
     19 N07         42.6900   -10.8550   -36.6450 nu         1 VXS      -0.957200
     20 O17         44.7950    -6.0240   -34.9120 oh         1 VXS      -0.536100
     21 O22         40.3710   -10.7640   -34.7180 o          1 VXS      -0.527000
     22 H1          43.2570    -8.2390   -35.8160 hc         1 VXS       0.061700
     23 H2          44.7320    -8.0790   -36.7450 hc         1 VXS       0.061700
     24 H3          42.1450    -6.3960   -38.6460 ha         1 VXS       0.111000
     25 H4          41.8270    -3.9590   -38.7310 ha         1 VXS       0.116000
     26 H5          42.8940    -2.4820   -37.0360 ha         1 VXS       0.113000
     27 H6          44.2920    -3.4680   -35.2370 ha         1 VXS       0.113000
     28 H7          44.3930   -12.7890   -37.4850 ha         1 VXS       0.118000
     29 H8          44.3720   -15.1610   -36.7420 ha         1 VXS       0.116000
     30 H9          42.6740   -15.9510   -35.0670 ha         1 VXS       0.138000
     31 H10         43.0550   -10.7560   -38.7180 h1         1 VXS       0.042700
     32 H11         44.4630   -10.3810   -37.7050 h1         1 VXS       0.042700
     33 H12         43.4380    -8.3950   -38.8710 hc         1 VXS       0.051200
     34 H13         41.9560    -8.6220   -37.9400 hc         1 VXS       0.051200
     35 H14         39.3300   -12.6860   -33.2460 hn         1 VXS       0.344500
     36 H15         41.9500   -10.3030   -36.2030 hn         1 VXS       0.515000
     37 H16         45.1140    -5.2810   -34.3570 ho         1 VXS       0.464000
     38 O01         40.3010   -15.1390   -33.3110 o          1 VXS      -0.493000
@<TRIPOS>BOND
     1     1     2 1   
     2     1    17 1   
     3     1    22 1   
     4     1    23 1   
     5     2     3 ar  
     6     2     7 ar  
     7     3     4 ar  
     8     3    24 1   
     9     4     5 ar  
    10     4    25 1   
    11     5     6 ar  
    12     5    26 1   
    13     6     7 ar  
    14     6    27 1   
    15     7    20 1   
    16     8     9 ar  
    17     8    15 ar  
    18     8    28 1   
    19     9    10 ar  
    20     9    29 1   
    21    10    11 ar  
    22    10    30 1   
    23    11    12 1   
    24    11    14 ar  
    25    12    18 1   
    26    12    38 2   
    27    13    14 1   
    28    13    18 1   
    29    13    21 2   
    30    14    15 ar  
    31    15    19 1   
    32    16    17 1   
    33    16    19 1   
    34    16    31 1   
    35    16    32 1   
    36    17    33 1   
    37    17    34 1   
    38    18    35 1   
    39    19    36 1   
    40    20    37 1   
@<TRIPOS>SUBSTRUCTURE
     1 VXS         1 TEMP              0 ****  ****    0 ROOT
