@<TRIPOS>MOLECULE
VXU
   26    27     1     0     0
SMALL
abcg2


@<TRIPOS>ATOM
      1 C2          -1.3150     2.4530     0.2890 ca         1 VXU      -0.111000
      2 C3          -2.1150     1.3380     0.0830 ca         1 VXU      -0.109000
      3 C1           0.0620     2.3440     0.1860 ca         1 VXU      -0.110000
      4 C4          -1.5540     0.1050    -0.2350 ca         1 VXU      -0.086300
      5 C11          0.6420     1.1240    -0.1430 ca         1 VXU       0.074100
      6 C5          -0.1670     0.0050    -0.3610 ca         1 VXU       0.103100
      7 C8           2.6210    -1.2630     0.1750 c3         1 VXU      -0.146400
      8 C9           2.6910     0.1910     0.5960 c3         1 VXU       0.165600
      9 C7           1.2170    -1.8330     0.1830 c3         1 VXU       0.169600
     10 C12         -2.4220    -1.1130    -0.4010 c3         1 VXU       0.200100
     11 N13         -2.2750    -1.9980     0.7480 n8         1 VXU      -0.992200
     12 O10          1.9920     1.0650    -0.2880 os         1 VXU      -0.352100
     13 O6           0.3680    -1.1770    -0.7540 os         1 VXU      -0.349100
     14 H2          -1.7630     3.4060     0.5400 ha         1 VXU       0.116000
     15 H3          -3.1910     1.4200     0.1750 ha         1 VXU       0.111000
     16 H1           0.7000     3.2030     0.3510 ha         1 VXU       0.125000
     17 H121        -3.4540    -0.7800    -0.5710 h1         1 VXU       0.039700
     18 H122        -2.1260    -1.6640    -1.2950 h1         1 VXU       0.039700
     19 H81C         3.0660    -1.3870    -0.8160 hc         1 VXU       0.058700
     20 H82C         3.2330    -1.8440     0.8700 hc         1 VXU       0.058700
     21 H91C         2.3120     0.3120     1.6170 h1         1 VXU       0.049700
     22 H92C         3.7270     0.5300     0.5870 h1         1 VXU       0.049700
     23 H71C         1.2400    -2.8810    -0.1160 h1         1 VXU       0.057200
     24 H72C         0.7760    -1.7840     1.1830 h1         1 VXU       0.057200
     25 H131        -2.6860    -1.5550     1.5610 hn         1 VXU       0.391000
     26 H132        -2.8170    -2.8380     0.5890 hn         1 VXU       0.391000
@<TRIPOS>BOND
     1     1     2 ar  
     2     1     3 ar  
     3     1    14 1   
     4     2     4 ar  
     5     2    15 1   
     6     3     5 ar  
     7     3    16 1   
     8     4     6 ar  
     9     4    10 1   
    10     5     6 ar  
    11     5    12 1   
    12     6    13 1   
    13     7     8 1   
    14     7     9 1   
    15     7    19 1   
    16     7    20 1   
    17     8    12 1   
    18     8    21 1   
    19     8    22 1   
    20     9    13 1   
    21     9    23 1   
    22     9    24 1   
    23    10    11 1   
    24    10    17 1   
    25    10    18 1   
    26    11    25 1   
    27    11    26 1   
@<TRIPOS>SUBSTRUCTURE
     1 VXU         1 TEMP              0 ****  ****    0 ROOT
