@<TRIPOS>MOLECULE
VXU
   26    27     1     0     0
SMALL
No Charge or Current Charge


@<TRIPOS>ATOM
      1 C2          -1.3790     2.3990     0.3320 ca         1 VXU      -0.111000
      2 C3          -2.1560     1.2500     0.1250 ca         1 VXU      -0.109000
      3 C1           0.0190     2.3210     0.2590 ca         1 VXU      -0.110000
      4 C4          -1.5430     0.0120    -0.1580 ca         1 VXU      -0.086300
      5 C11          0.6540     1.0950     0.0000 ca         1 VXU       0.074100
      6 C5          -0.1290    -0.0750    -0.2150 ca         1 VXU       0.103100
      7 C8           2.7950    -1.1770    -0.0390 c3         1 VXU      -0.146400
      8 C9           2.8670     0.2080     0.6150 c3         1 VXU       0.165600
      9 C7           1.4670    -1.8990     0.2190 c3         1 VXU       0.169600
     10 C12         -2.4310    -1.2070    -0.4040 c3         1 VXU       0.200100
     11 N13         -2.9420    -1.7760     0.8600 n8         1 VXU      -0.992200
     12 O10          2.0300     1.1240    -0.1050 os         1 VXU      -0.352100
     13 O6           0.4310    -1.2890    -0.5640 os         1 VXU      -0.349100
     14 H2          -1.8610     3.3520     0.5400 ha         1 VXU       0.116000
     15 H3          -3.2400     1.3230     0.1730 ha         1 VXU       0.111000
     16 H1           0.6170     3.2170     0.4050 ha         1 VXU       0.125000
     17 H121        -3.2880    -0.9080    -1.0240 h1         1 VXU       0.039700
     18 H122        -1.8860    -1.9880    -0.9510 h1         1 VXU       0.039700
     19 H81C         2.9800    -1.0970    -1.1170 hc         1 VXU       0.058700
     20 H82C         3.6030    -1.7920     0.3740 hc         1 VXU       0.058700
     21 H91C         2.5750     0.1520     1.6720 h1         1 VXU       0.049700
     22 H92C         3.9070     0.5560     0.5740 h1         1 VXU       0.049700
     23 H71C         1.5790    -2.9490    -0.0810 h1         1 VXU       0.057200
     24 H72C         1.2170    -1.8820     1.2880 h1         1 VXU       0.057200
     25 H131        -3.5140    -1.0660     1.3320 hn         1 VXU       0.391000
     26 H132        -3.6100    -2.5240     0.6410 hn         1 VXU       0.391000
@<TRIPOS>BOND
     1     1     2 ar  
     2     1     3 ar  
     3     1    14 1   
     4     2     4 ar  
     5     2    15 1   
     6     3     5 ar  
     7     3    16 1   
     8     4     6 ar  
     9     4    10 1   
    10     5     6 ar  
    11     5    12 1   
    12     6    13 1   
    13     7     8 1   
    14     7     9 1   
    15     7    19 1   
    16     7    20 1   
    17     8    12 1   
    18     8    21 1   
    19     8    22 1   
    20     9    13 1   
    21     9    23 1   
    22     9    24 1   
    23    10    11 1   
    24    10    17 1   
    25    10    18 1   
    26    11    25 1   
    27    11    26 1   
@<TRIPOS>SUBSTRUCTURE
     1 VXU         1 TEMP              0 ****  ****    0 ROOT
