@<TRIPOS>MOLECULE
VXV
   38    40     1     0     0
SMALL
bcc


@<TRIPOS>ATOM
      1 C02        -13.2700   -84.4210    -8.0940 c          1 VXV       0.727100
      2 C04        -13.6810   -86.0150    -9.7040 c          1 VXV       0.746100
      3 C05        -14.9020   -85.8640    -8.9070 ca         1 VXV      -0.272600
      4 C06        -16.1350   -86.5160    -9.0260 ca         1 VXV       0.273600
      5 C08        -17.5770   -88.2190   -10.0920 c3         1 VXV       0.224800
      6 C09        -17.6230   -88.9550   -11.4210 c3         1 VXV      -0.090400
      7 C10        -17.7010   -88.0180   -12.6290 c3         1 VXV      -0.035100
      8 C11        -17.7920   -88.7880   -13.9160 ca         1 VXV      -0.031300
      9 C12        -16.6410   -89.0690   -14.6460 ca         1 VXV      -0.157000
     10 C13        -16.7490   -89.8220   -15.8050 ca         1 VXV       0.067400
     11 C15        -17.9600   -90.3070   -16.2620 ca         1 VXV      -0.160000
     12 C16        -19.1080   -90.0250   -15.5230 ca         1 VXV       0.151100
     13 C18        -19.0200   -89.2680   -14.3580 ca         1 VXV      -0.226000
     14 C19        -17.1110   -86.1350    -8.0720 ca         1 VXV      -0.206000
     15 C20        -16.8530   -85.1770    -7.1120 ca         1 VXV      -0.064000
     16 C21        -15.6160   -84.5280    -7.0120 ca         1 VXV      -0.126000
     17 C22        -14.6670   -84.9030    -7.9300 ca         1 VXV      -0.088600
     18 N03        -12.7620   -85.1290    -9.1620 ns         1 VXV      -0.620500
     19 N07        -16.3710   -87.4290    -9.9890 nu         1 VXV      -0.766600
     20 O01        -12.6820   -83.5910    -7.4460 o          1 VXV      -0.566500
     21 O17        -20.2730   -90.5090   -15.9870 oh         1 VXV      -0.489100
     22 O23        -13.4700   -86.7480   -10.6460 o          1 VXV      -0.604500
     23 CL14       -15.3150   -90.1660   -16.7200 cl         1 VXV      -0.105400
     24 H1         -18.4510   -87.5660   -10.0170 h1         1 VXV       0.043200
     25 H2         -17.6460   -88.9420    -9.2720 h1         1 VXV       0.043200
     26 H3         -18.4990   -89.6090   -11.4110 hc         1 VXV       0.055200
     27 H4         -16.7520   -89.6110   -11.5140 hc         1 VXV       0.055200
     28 H5         -16.8270   -87.3650   -12.6550 hc         1 VXV       0.057700
     29 H6         -18.5730   -87.3670   -12.5210 hc         1 VXV       0.057700
     30 H7         -15.6770   -88.7050   -14.3130 ha         1 VXV       0.154000
     31 H8         -18.0240   -90.8920   -17.1700 ha         1 VXV       0.163000
     32 H9         -19.9180   -89.0490   -13.7880 ha         1 VXV       0.132000
     33 H10        -18.0860   -86.6020    -8.0840 ha         1 VXV       0.136000
     34 H11        -17.6400   -84.9280    -6.4120 ha         1 VXV       0.135000
     35 H12        -15.4290   -83.7800    -6.2540 ha         1 VXV       0.157000
     36 H13        -11.8200   -85.0190    -9.5110 hn         1 VXV       0.345500
     37 H14        -15.5750   -87.7400   -10.5240 hn         1 VXV       0.458800
     38 H15        -20.9970   -90.2660   -15.3990 ho         1 VXV       0.428000
@<TRIPOS>BOND
     1     1    17 1   
     2     1    18 1   
     3     1    20 2   
     4     2     3 1   
     5     2    18 1   
     6     2    22 2   
     7     3     4 ar  
     8     3    17 ar  
     9     4    14 ar  
    10     4    19 1   
    11     5     6 1   
    12     5    19 1   
    13     5    24 1   
    14     5    25 1   
    15     6     7 1   
    16     6    26 1   
    17     6    27 1   
    18     7     8 1   
    19     7    28 1   
    20     7    29 1   
    21     8     9 ar  
    22     8    13 ar  
    23     9    10 ar  
    24     9    30 1   
    25    10    11 ar  
    26    10    23 1   
    27    11    12 ar  
    28    11    31 1   
    29    12    13 ar  
    30    12    21 1   
    31    13    32 1   
    32    14    15 ar  
    33    14    33 1   
    34    15    16 ar  
    35    15    34 1   
    36    16    17 ar  
    37    16    35 1   
    38    18    36 1   
    39    19    37 1   
    40    21    38 1   
@<TRIPOS>SUBSTRUCTURE
     1 VXV         1 TEMP              0 ****  ****    0 ROOT
