@<TRIPOS>MOLECULE
VXV
   38    40     1     0     0
SMALL
No Charge or Current Charge


@<TRIPOS>ATOM
      1 C02        -13.1430   -84.5040    -8.0900 c          1 VXV       0.584600
      2 C04        -13.7810   -85.9110    -9.8130 c          1 VXV       0.603600
      3 C05        -14.9290   -85.7870    -8.8830 ca         1 VXV      -0.272600
      4 C06        -16.1940   -86.3650    -8.9410 ca         1 VXV       0.412000
      5 C08        -17.6960   -88.0810   -10.1090 c3         1 VXV       0.224800
      6 C09        -17.6580   -88.8820   -11.4270 c3         1 VXV      -0.090400
      7 C10        -17.8640   -88.0200   -12.6950 c3         1 VXV      -0.035100
      8 C11        -17.8570   -88.8630   -13.9630 ca         1 VXV      -0.031300
      9 C12        -16.6430   -89.1530   -14.6150 ca         1 VXV      -0.139000
     10 C13        -16.6370   -89.9350   -15.7810 ca         1 VXV       0.159000
     11 C15        -17.8400   -90.4330   -16.3040 ca         1 VXV      -0.142000
     12 C16        -19.0510   -90.1480   -15.6580 ca         1 VXV       0.151100
     13 C18        -19.0620   -89.3670   -14.4910 ca         1 VXV      -0.208000
     14 C19        -17.0990   -86.0620    -7.9000 ca         1 VXV      -0.188000
     15 C20        -16.7230   -85.2020    -6.8380 ca         1 VXV      -0.046000
     16 C21        -15.4340   -84.6300    -6.8010 ca         1 VXV      -0.108000
     17 C22        -14.5510   -84.9410    -7.8430 ca         1 VXV      -0.088600
     18 N03        -12.8140   -85.1310    -9.2540 ns         1 VXV      -0.486500
     19 N07        -16.5260   -87.2010    -9.9990 nu         1 VXV      -0.960200
     20 O01        -12.4380   -83.7630    -7.4230 o          1 VXV      -0.491000
     21 O17        -20.2180   -90.6340   -16.1650 oh         1 VXV      -0.528100
     22 O23        -13.7030   -86.5590   -10.8440 o          1 VXV      -0.529000
     23 Cl14       -15.1160   -90.2930   -16.5880 cl         1 VXV      -0.197000
     24 H1         -18.6240   -87.4940   -10.0660 h1         1 VXV       0.043200
     25 H2         -17.7050   -88.7870    -9.2670 h1         1 VXV       0.043200
     26 H3         -18.4510   -89.6390   -11.3900 hc         1 VXV       0.055200
     27 H4         -16.7090   -89.4280   -11.4980 hc         1 VXV       0.055200
     28 H5         -17.0780   -87.2560   -12.7520 hc         1 VXV       0.057700
     29 H6         -18.8120   -87.4750   -12.6100 hc         1 VXV       0.057700
     30 H7         -15.7050   -88.7760   -14.2190 ha         1 VXV       0.136000
     31 H8         -17.8320   -91.0380   -17.2060 ha         1 VXV       0.145000
     32 H9         -20.0010   -89.1490   -13.9890 ha         1 VXV       0.114000
     33 H10        -18.0970   -86.4880    -7.9070 ha         1 VXV       0.118000
     34 H11        -17.4350   -84.9810    -6.0450 ha         1 VXV       0.117000
     35 H12        -15.1360   -83.9680    -5.9900 ha         1 VXV       0.139000
     36 H13        -11.9060   -85.0250    -9.6790 hn         1 VXV       0.345500
     37 H14        -15.7700   -87.3400   -10.6740 hn         1 VXV       0.514000
     38 H15        -20.9530   -90.3360   -15.5880 ho         1 VXV       0.467000
@<TRIPOS>BOND
     1     1    17 1   
     2     1    18 1   
     3     1    20 2   
     4     2     3 1   
     5     2    18 1   
     6     2    22 2   
     7     3     4 ar  
     8     3    17 ar  
     9     4    14 ar  
    10     4    19 1   
    11     5     6 1   
    12     5    19 1   
    13     5    24 1   
    14     5    25 1   
    15     6     7 1   
    16     6    26 1   
    17     6    27 1   
    18     7     8 1   
    19     7    28 1   
    20     7    29 1   
    21     8     9 ar  
    22     8    13 ar  
    23     9    10 ar  
    24     9    30 1   
    25    10    11 ar  
    26    10    23 1   
    27    11    12 ar  
    28    11    31 1   
    29    12    13 ar  
    30    12    21 1   
    31    13    32 1   
    32    14    15 ar  
    33    14    33 1   
    34    15    16 ar  
    35    15    34 1   
    36    16    17 ar  
    37    16    35 1   
    38    18    36 1   
    39    19    37 1   
    40    21    38 1   
@<TRIPOS>SUBSTRUCTURE
     1 VXV         1 TEMP              0 ****  ****    0 ROOT
