@<TRIPOS>MOLECULE
VXW
   30    30     1     0     0
SMALL
No Charge or Current Charge


@<TRIPOS>ATOM
      1 C7          23.0040    13.2630   -24.9330 c3         1 VXW       0.150300
      2 C8          21.0580    14.8010   -25.2750 c          1 VXW       0.612100
      3 C9          19.5510    14.8750   -25.3300 c3         1 VXW      -0.274400
      4 O1          19.1110    13.8490   -27.4470 o          1 VXW      -0.508100
      5 C1          23.6640     9.0280   -24.2040 ca         1 VXW      -0.076300
      6 C5          23.3330    11.2940   -23.3600 ca         1 VXW      -0.096500
      7 C6          23.5450     9.9250   -23.1250 ca         1 VXW      -0.110000
      8 C4          23.2390    11.7830   -24.6780 ca         1 VXW      -0.119300
      9 C3          23.3580    10.8860   -25.7570 ca         1 VXW      -0.096500
     10 C2          23.5710     9.5160   -25.5200 ca         1 VXW      -0.110000
     11 C10         19.1640    14.8830   -26.7960 c          1 VXW       0.577100
     12 C11         18.8330    16.2380   -27.4190 c3         1 VXW      -0.197100
     13 O           21.7650    15.7840   -25.4350 o          1 VXW      -0.591100
     14 N           21.5770    13.5560   -25.0260 ns         1 VXW      -0.500900
     15 H1          23.4940    13.5620   -25.8700 h1         1 VXW       0.065700
     16 H2          23.4400    13.8570   -24.1190 h1         1 VXW       0.065700
     17 H3          19.2390    15.8170   -24.8650 hc         1 VXW       0.081200
     18 H4          19.1150    13.9860   -24.8620 hc         1 VXW       0.081200
     19 H5          23.2390    11.9760   -22.5170 ha         1 VXW       0.120500
     20 H6          23.6170     9.5610   -22.1030 ha         1 VXW       0.111500
     21 H7          23.2850    11.2490   -26.7800 ha         1 VXW       0.120500
     22 H8          23.6630     8.8350   -26.3630 ha         1 VXW       0.111500
     23 H9          18.5910    16.1650   -28.4850 hc         1 VXW       0.064700
     24 H10         18.0160    16.6980   -26.8520 hc         1 VXW       0.064700
     25 H11         19.6620    16.9300   -27.2340 hc         1 VXW       0.064700
     26 H12         20.9210    12.7930   -24.9080 hn         1 VXW       0.311500
     27 H13         24.9700     7.3240   -23.8980 hc         1 VXW       0.041700
     28 H14         23.4440     7.2270   -23.0030 hc         1 VXW       0.041700
     29 H15         23.4640     6.9310   -24.7450 hc         1 VXW       0.041700
     30 C           23.8970     7.5470   -23.9490 c3         1 VXW      -0.045800
@<TRIPOS>BOND
     1     1     8 1   
     2     1    14 1   
     3     1    15 1   
     4     1    16 1   
     5     2     3 1   
     6     2    13 2   
     7     2    14 1   
     8     3    11 1   
     9     3    17 1   
    10     3    18 1   
    11     4    11 2   
    12     5     7 ar  
    13     5    10 ar  
    14     5    30 1   
    15     6     7 ar  
    16     6     8 ar  
    17     6    19 1   
    18     7    20 1   
    19     8     9 ar  
    20     9    10 ar  
    21     9    21 1   
    22    10    22 1   
    23    11    12 1   
    24    12    23 1   
    25    12    24 1   
    26    12    25 1   
    27    14    26 1   
    28    27    30 1   
    29    28    30 1   
    30    29    30 1   
@<TRIPOS>SUBSTRUCTURE
     1 VXW         1 TEMP              0 ****  ****    0 ROOT
