@<TRIPOS>MOLECULE
VXW
   30    30     1     0     0
SMALL
abcg2


@<TRIPOS>ATOM
      1 C7          22.8260    13.4530   -23.6370 c3         1 VXW       0.150300
      2 C8          21.7290    14.8130   -25.3770 c          1 VXW       0.612100
      3 C9          20.3980    15.3070   -25.9010 c3         1 VXW      -0.274400
      4 O1          20.3490    13.3620   -27.3020 o          1 VXW      -0.508100
      5 C1          23.3640     9.2450   -24.5490 ca         1 VXW      -0.076300
      6 C5          23.6540    11.1460   -23.0710 ca         1 VXW      -0.096500
      7 C6          23.8460     9.8010   -23.3620 ca         1 VXW      -0.110000
      8 C4          22.9770    11.9810   -23.9610 ca         1 VXW      -0.119300
      9 C3          22.4880    11.4310   -25.1430 ca         1 VXW      -0.096500
     10 C2          22.6790    10.0830   -25.4290 ca         1 VXW      -0.110000
     11 C10         19.8440    14.4280   -27.0120 c          1 VXW       0.577100
     12 C11         18.6300    14.9630   -27.7170 c3         1 VXW      -0.197100
     13 O           22.7780    15.0690   -25.9670 o          1 VXW      -0.591100
     14 N           21.6710    14.0810   -24.2490 ns         1 VXW      -0.500900
     15 H1          23.7050    14.0000   -23.9810 h1         1 VXW       0.065700
     16 H2          22.7630    13.5850   -22.5560 h1         1 VXW       0.065700
     17 H3          20.5240    16.3190   -26.2900 hc         1 VXW       0.081200
     18 H4          19.6380    15.3600   -25.1150 hc         1 VXW       0.081200
     19 H5          24.0290    11.5520   -22.1380 ha         1 VXW       0.120500
     20 H6          24.3690     9.1710   -22.6510 ha         1 VXW       0.111500
     21 H7          21.9440    12.0530   -25.8430 ha         1 VXW       0.120500
     22 H8          22.2850     9.6750   -26.3530 ha         1 VXW       0.111500
     23 H9          18.2540    14.2380   -28.4350 hc         1 VXW       0.064700
     24 H10         17.8540    15.2110   -26.9890 hc         1 VXW       0.064700
     25 H11         18.8940    15.8920   -28.2300 hc         1 VXW       0.064700
     26 H12         20.7650    13.8830   -23.8540 hn         1 VXW       0.311500
     27 H13         24.6150     7.6300   -25.2290 hc         1 VXW       0.041700
     28 H14         23.4540     7.1630   -23.9920 hc         1 VXW       0.041700
     29 H15         22.9130     7.4510   -25.6530 hc         1 VXW       0.041700
     30 C           23.5930     7.7930   -24.8730 c3         1 VXW      -0.045800
@<TRIPOS>BOND
     1     1     8 1   
     2     1    14 1   
     3     1    15 1   
     4     1    16 1   
     5     2     3 1   
     6     2    13 2   
     7     2    14 1   
     8     3    11 1   
     9     3    17 1   
    10     3    18 1   
    11     4    11 2   
    12     5     7 ar  
    13     5    10 ar  
    14     5    30 1   
    15     6     7 ar  
    16     6     8 ar  
    17     6    19 1   
    18     7    20 1   
    19     8     9 ar  
    20     9    10 ar  
    21     9    21 1   
    22    10    22 1   
    23    11    12 1   
    24    12    23 1   
    25    12    24 1   
    26    12    25 1   
    27    14    26 1   
    28    27    30 1   
    29    28    30 1   
    30    29    30 1   
@<TRIPOS>SUBSTRUCTURE
     1 VXW         1 TEMP              0 ****  ****    0 ROOT
