@<TRIPOS>MOLECULE
VXX
   23    23     1     0     0
SMALL
abcg2


@<TRIPOS>ATOM
      1 C1          10.4810   114.4490    14.5220 ca         1 VXX      -0.153600
      2 CO1         10.8210   115.4840    15.3910 ca         1 VXX      -0.042000
      3 CO2         10.8410   113.1290    14.8340 ca         1 VXX      -0.096000
      4 CM1         11.5150   115.2120    16.5630 ca         1 VXX      -0.145000
      5 CM2         11.5340   112.8570    15.9970 ca         1 VXX       0.028100
      6 OM          11.9440   111.6290    16.4150 os         1 VXX      -0.377100
      7 CZ          11.8740   113.9090    16.8720 ca         1 VXX       0.150100
      8 CC           9.7470   114.6860    13.2610 c          1 VXX       0.607700
      9 CV          11.6210   110.4980    15.6040 c3         1 VXX       0.156900
     10 O1           9.4220   113.8120    12.4780 o          1 VXX      -0.497000
     11 O2           9.4670   115.9820    13.0530 os         1 VXX      -0.448100
     12 O3          12.5520   113.6490    18.0150 oh         1 VXX      -0.529100
     13 C9           8.7540   116.3000    11.8440 c3         1 VXX       0.154900
     14 HO1         10.5450   116.5020    15.1570 ha         1 VXX       0.136000
     15 HO2         10.5700   112.3390    14.1500 ha         1 VXX       0.140000
     16 HM1         11.7850   116.0050    17.2480 ha         1 VXX       0.137000
     17 HVC1        12.0310   109.6340    16.1210 h1         1 VXX       0.046700
     18 HVC2        12.0740   110.5890    14.6150 h1         1 VXX       0.046700
     19 HVC3        10.5380   110.3920    15.5050 h1         1 VXX       0.046700
     20 H3          12.7110   112.6930    18.0710 ho         1 VXX       0.486000
     21 H9C1         8.6240   117.3780    11.8590 h1         1 VXX       0.050033
     22 H9C2         7.7870   115.7990    11.8310 h1         1 VXX       0.050033
     23 H9C3         9.3340   115.9980    10.9730 h1         1 VXX       0.050033
@<TRIPOS>BOND
     1     1     2 ar  
     2     1     3 ar  
     3     1     8 1   
     4     2     4 ar  
     5     2    14 1   
     6     3     5 ar  
     7     3    15 1   
     8     4     7 ar  
     9     4    16 1   
    10     5     6 1   
    11     5     7 ar  
    12     6     9 1   
    13     7    12 1   
    14     8    10 2   
    15     8    11 1   
    16     9    17 1   
    17     9    18 1   
    18     9    19 1   
    19    11    13 1   
    20    12    20 1   
    21    13    21 1   
    22    13    22 1   
    23    13    23 1   
@<TRIPOS>SUBSTRUCTURE
     1 VXX         1 TEMP              0 ****  ****    0 ROOT
