@<TRIPOS>MOLECULE
VXX
   23    23     1     0     0
SMALL
No Charge or Current Charge


@<TRIPOS>ATOM
      1 C1          10.4850   114.4360    14.5140 ca         1 VXX      -0.153600
      2 CO1         10.8290   115.4950    15.3870 ca         1 VXX      -0.042000
      3 CO2         10.8550   113.1140    14.8590 ca         1 VXX      -0.096000
      4 CM1         11.5280   115.2360    16.5780 ca         1 VXX      -0.145000
      5 CM2         11.5580   112.8540    16.0580 ca         1 VXX       0.028100
      6 OM          11.9400   111.5770    16.4360 os         1 VXX      -0.377100
      7 CZ          11.8900   113.9240    16.9110 ca         1 VXX       0.150100
      8 CC           9.7320   114.6960    13.2260 c          1 VXX       0.607700
      9 CV          11.6500   110.4150    15.6340 c3         1 VXX       0.156900
     10 O1           9.4190   113.8040    12.4480 o          1 VXX      -0.497000
     11 O2           9.4360   116.0200    13.0150 os         1 VXX      -0.448100
     12 O3          12.5680   113.6770    18.0680 oh         1 VXX      -0.529100
     13 C9           8.7210   116.3740    11.8160 c3         1 VXX       0.154900
     14 HO1         10.5600   116.5230    15.1520 ha         1 VXX       0.136000
     15 HO2         10.5900   112.3020    14.1880 ha         1 VXX       0.140000
     16 HM1         11.7890   116.0550    17.2440 ha         1 VXX       0.137000
     17 HVC1        12.0410   109.5110    16.1180 h1         1 VXX       0.046700
     18 HVC2        12.1150   110.4970    14.6430 h1         1 VXX       0.046700
     19 HVC3        10.5670   110.2890    15.5060 h1         1 VXX       0.046700
     20 H3          12.7140   112.7050    18.0970 ho         1 VXX       0.486000
     21 H9C1         8.5540   117.4580    11.7780 h1         1 VXX       0.050033
     22 H9C2         7.7420   115.8780    11.7830 h1         1 VXX       0.050033
     23 H9C3         9.2880   116.0860    10.9210 h1         1 VXX       0.050033
@<TRIPOS>BOND
     1     1     2 ar  
     2     1     3 ar  
     3     1     8 1   
     4     2     4 ar  
     5     2    14 1   
     6     3     5 ar  
     7     3    15 1   
     8     4     7 ar  
     9     4    16 1   
    10     5     6 1   
    11     5     7 ar  
    12     6     9 1   
    13     7    12 1   
    14     8    10 2   
    15     8    11 1   
    16     9    17 1   
    17     9    18 1   
    18     9    19 1   
    19    11    13 1   
    20    12    20 1   
    21    13    21 1   
    22    13    22 1   
    23    13    23 1   
@<TRIPOS>SUBSTRUCTURE
     1 VXX         1 TEMP              0 ****  ****    0 ROOT
