@<TRIPOS>MOLECULE
VXY
   60    63     1     0     0
SMALL
abcg2


@<TRIPOS>ATOM
      1 C4         -16.8050     6.1540    28.0260 ca         1 VXY       0.193400
      2 C6         -15.3350     7.8410    27.3150 ca         1 VXY       0.193400
      3 C5         -16.4790     7.5100    28.0430 cp         1 VXY      -0.339500
      4 C28        -18.5460     8.4880    29.0600 ca         1 VXY      -0.078000
      5 C8         -17.2010     8.5420    28.7960 cp         1 VXY       0.255500
      6 C12        -19.1340     9.5130    29.8240 ca         1 VXY       0.415900
      7 C10        -17.1010    10.5430    29.8880 ca         1 VXY       0.434900
      8 C2         -15.0430     5.6910    26.6810 ca         1 VXY       0.393900
      9 C21        -21.6360    12.1840    34.0120 c          1 VXY       0.649100
     10 C17        -22.5260     9.9710    31.2900 c5         1 VXY      -0.107400
     11 C18        -22.9530    10.9110    32.4080 c5         1 VXY       0.117000
     12 C31        -16.9160    12.6330    31.1630 c6         1 VXY       0.189300
     13 C35        -14.9370    11.6700    30.1270 c6         1 VXY       0.189300
     14 C20        -20.5350    10.9130    32.1870 c5         1 VXY       0.114000
     15 C32        -16.3720    14.0010    30.7970 c6         1 VXY       0.140100
     16 C34        -14.4870    13.0840    29.8060 c6         1 VXY       0.140100
     17 C14        -21.1620    10.5120    30.8420 c5         1 VXY       0.247200
     18 C15        -21.3170    11.7520    29.9590 c3         1 VXY       0.142600
     19 C24        -20.0900    13.5030    35.2400 c3         1 VXY       0.117600
     20 C25        -19.6150    14.6680    34.4110 c3         1 VXY       0.149300
     21 N3         -16.1070     5.2520    27.3650 nb         1 VXY      -0.257500
     22 N7         -14.6250     6.9640    26.6370 nb         1 VXY      -0.257500
     23 N9         -16.4730     9.5870    29.2140 nb         1 VXY      -0.290000
     24 N11        -18.3920    10.5290    30.2320 nb         1 VXY      -0.334000
     25 N30        -16.3800    11.6350    30.2580 nh         1 VXY      -0.772300
     26 N19        -21.6830    11.3510    32.9660 n          1 VXY      -0.411800
     27 N1         -14.3470     4.7890    25.9780 nv         1 VXY      -1.065900
     28 N13        -20.4330     9.4570    30.1650 nu         1 VXY      -0.913100
     29 O22        -22.6080    12.6590    34.5640 o          1 VXY      -0.532000
     30 O33        -14.9640    14.0140    30.7540 os         1 VXY      -0.446000
     31 O16        -22.0080    11.3950    28.7880 oh         1 VXY      -0.665000
     32 O23        -20.3640    12.3980    34.4030 os         1 VXY      -0.445100
     33 F26        -18.4890    14.3370    33.7180 f          1 VXY      -0.120500
     34 F27        -20.5530    14.9990    33.4800 f          1 VXY      -0.120500
     35 H38        -17.6460     5.7710    28.5900 h4         1 VXY       0.035100
     36 H39        -14.9940     8.8700    27.2850 h4         1 VXY       0.035100
     37 H44        -23.2570     9.9260    30.4840 hc         1 VXY       0.070200
     38 H45        -22.3970     8.9600    31.6820 hc         1 VXY       0.070200
     39 H47        -23.5270    11.7610    32.0290 h1         1 VXY       0.060200
     40 H46        -23.5650    10.4050    33.1550 h1         1 VXY       0.060200
     41 H53        -18.0000    12.6510    31.0910 h1         1 VXY       0.064950
     42 H54        -16.6580    12.3860    32.2010 h1         1 VXY       0.064950
     43 H60        -14.6230    11.0020    29.3290 h1         1 VXY       0.064950
     44 H59        -14.4610    11.3270    31.0550 h1         1 VXY       0.064950
     45 H49        -20.0400    10.0510    32.6430 h1         1 VXY       0.075700
     46 H48        -19.7980    11.7060    32.0830 h1         1 VXY       0.075700
     47 H55        -16.6870    14.7330    31.5410 h1         1 VXY       0.053700
     48 H56        -16.7880    14.3050    29.8250 h1         1 VXY       0.053700
     49 H58        -13.3980    13.1350    29.8150 h1         1 VXY       0.053700
     50 H57        -14.8330    13.3540    28.7980 h1         1 VXY       0.053700
     51 H42        -20.3220    12.1530    29.7350 h1         1 VXY       0.041700
     52 H41        -21.8510    12.5250    30.5270 h1         1 VXY       0.041700
     53 H50        -20.9580    13.8050    35.8280 h1         1 VXY       0.086700
     54 H51        -19.3000    13.2100    35.9320 h1         1 VXY       0.086700
     55 H52        -19.4020    15.5440    35.0260 h2         1 VXY       0.065700
     56 H37        -13.4830     5.0510    25.5380 hn         1 VXY       0.504000
     57 H36        -14.5620     3.8110    26.0610 hn         1 VXY       0.504000
     58 H40        -20.9830     8.7140    29.7680 hn         1 VXY       0.516000
     59 H43        -22.1030    12.1830    28.2460 ho         1 VXY       0.450000
     60 F29        -19.3310     7.4830    28.6130 f          1 VXY      -0.179000
@<TRIPOS>BOND
     1     1     3 ar  
     2     1    21 ar  
     3     1    35 1   
     4     2     3 ar  
     5     2    22 ar  
     6     2    36 1   
     7     3     5 1   
     8     4     5 ar  
     9     4     6 ar  
    10     4    60 1   
    11     5    23 ar  
    12     6    24 ar  
    13     6    28 1   
    14     7    23 ar  
    15     7    24 ar  
    16     7    25 1   
    17     8    21 ar  
    18     8    22 ar  
    19     8    27 1   
    20     9    26 1   
    21     9    29 2   
    22     9    32 1   
    23    10    11 1   
    24    10    17 1   
    25    10    37 1   
    26    10    38 1   
    27    11    26 1   
    28    11    39 1   
    29    11    40 1   
    30    12    15 1   
    31    12    25 1   
    32    12    41 1   
    33    12    42 1   
    34    13    16 1   
    35    13    25 1   
    36    13    43 1   
    37    13    44 1   
    38    14    17 1   
    39    14    26 1   
    40    14    45 1   
    41    14    46 1   
    42    15    30 1   
    43    15    47 1   
    44    15    48 1   
    45    16    30 1   
    46    16    49 1   
    47    16    50 1   
    48    17    18 1   
    49    17    28 1   
    50    18    31 1   
    51    18    51 1   
    52    18    52 1   
    53    19    20 1   
    54    19    32 1   
    55    19    53 1   
    56    19    54 1   
    57    20    33 1   
    58    20    34 1   
    59    20    55 1   
    60    27    56 1   
    61    27    57 1   
    62    28    58 1   
    63    31    59 1   
@<TRIPOS>SUBSTRUCTURE
     1 VXY         1 TEMP              0 ****  ****    0 ROOT
