@<TRIPOS>MOLECULE
VXY
   60    63     1     0     0
SMALL
No Charge or Current Charge


@<TRIPOS>ATOM
      1 C4         -16.8830     6.1980    27.6790 ca         1 VXY       0.193400
      2 C6         -15.7530     8.1100    26.7700 ca         1 VXY       0.193400
      3 C5         -16.6210     7.5890    27.7640 cp         1 VXY      -0.339500
      4 C28        -18.4500     8.2410    29.4620 ca         1 VXY      -0.078000
      5 C8         -17.1920     8.4580    28.8420 cp         1 VXY       0.255500
      6 C12        -18.8520     9.1470    30.4610 ca         1 VXY       0.415900
      7 C10        -16.8990    10.3150    30.1900 ca         1 VXY       0.434900
      8 C2         -15.5630     6.0440    25.8280 ca         1 VXY       0.393900
      9 C21        -21.9020    12.7170    33.7080 c          1 VXY       0.649100
     10 C17        -22.3050     9.6570    31.6780 c5         1 VXY      -0.107400
     11 C18        -22.9670    10.9320    32.2690 c5         1 VXY       0.117000
     12 C31        -16.3900    12.2270    31.8040 c6         1 VXY       0.189300
     13 C35        -14.6630    11.5380    30.0840 c6         1 VXY       0.189300
     14 C20        -20.5040    11.0810    32.3550 c5         1 VXY       0.114000
     15 C32        -15.7480    13.6450    31.7830 c6         1 VXY       0.140100
     16 C34        -14.1120    12.9930    30.1550 c6         1 VXY       0.140100
     17 C14        -20.9520    10.2090    31.1330 c5         1 VXY       0.247200
     18 C15        -21.0620    10.9890    29.7680 c3         1 VXY       0.142600
     19 C24        -20.5700    14.3620    34.9110 c3         1 VXY       0.117600
     20 C25        -20.5420    15.6110    33.9900 c3         1 VXY       0.149300
     21 N3         -16.3550     5.4250    26.7110 nb         1 VXY      -0.257500
     22 N7         -15.2260     7.3390    25.7990 nb         1 VXY      -0.257500
     23 N9         -16.4420     9.5130    29.2090 nb         1 VXY      -0.290000
     24 N11        -18.0680    10.1690    30.8360 nb         1 VXY      -0.334000
     25 N30        -16.0890    11.4210    30.5630 nh         1 VXY      -0.772300
     26 N19        -21.7950    11.6310    32.8310 n          1 VXY      -0.411800
     27 N1         -15.0310     5.2670    24.8540 nv         1 VXY      -1.065900
     28 N13        -20.0780     8.9820    31.1210 nu         1 VXY      -0.913100
     29 O22        -22.9710    13.1750    34.0830 o          1 VXY      -0.532000
     30 O33        -14.3420    13.5730    31.4580 os         1 VXY      -0.446000
     31 O16        -21.5270    10.1430    28.6960 oh         1 VXY      -0.665000
     32 O23        -20.6690    13.1540    34.1190 os         1 VXY      -0.445100
     33 F26        -19.5440    15.5030    33.0810 f          1 VXY      -0.120500
     34 F27        -21.7010    15.7440    33.3040 f          1 VXY      -0.120500
     35 H38        -17.5050     5.6850    28.4100 h4         1 VXY       0.035100
     36 H39        -15.4840     9.1650    26.7440 h4         1 VXY       0.035100
     37 H44        -22.9240     9.1870    30.9070 hc         1 VXY       0.070200
     38 H45        -22.1610     8.9160    32.4740 hc         1 VXY       0.070200
     39 H47        -23.4500    11.5420    31.4940 h1         1 VXY       0.060200
     40 H46        -23.7140    10.6890    33.0360 h1         1 VXY       0.060200
     41 H53        -17.4730    12.3690    31.9320 h1         1 VXY       0.064950
     42 H54        -16.0280    11.6900    32.6930 h1         1 VXY       0.064950
     43 H60        -14.5680    11.2090    29.0390 h1         1 VXY       0.064950
     44 H59        -14.0140    10.8870    30.6870 h1         1 VXY       0.064950
     45 H49        -20.0340    10.4780    33.1430 h1         1 VXY       0.075700
     46 H48        -19.8030    11.8710    32.0570 h1         1 VXY       0.075700
     47 H55        -15.8670    14.1210    32.7660 h1         1 VXY       0.053700
     48 H56        -16.2580    14.2730    31.0380 h1         1 VXY       0.053700
     49 H58        -13.0330    12.9920    29.9460 h1         1 VXY       0.053700
     50 H57        -14.6040    13.6140    29.3920 h1         1 VXY       0.053700
     51 H42        -20.0820    11.4140    29.5170 h1         1 VXY       0.041700
     52 H41        -21.7470    11.8380    29.9000 h1         1 VXY       0.041700
     53 H50        -21.3920    14.4440    35.6350 h1         1 VXY       0.086700
     54 H51        -19.6360    14.3510    35.4860 h1         1 VXY       0.086700
     55 H52        -20.3810    16.5140    34.5890 h2         1 VXY       0.065700
     56 H37        -14.2540     5.6380    24.3110 hn         1 VXY       0.504000
     57 H36        -15.0650     4.2560    24.9650 hn         1 VXY       0.504000
     58 H40        -20.5230     8.1100    30.8390 hn         1 VXY       0.516000
     59 H43        -21.5490    10.6930    27.8810 ho         1 VXY       0.450000
     60 F29        -19.2670     7.2210    29.0960 f          1 VXY      -0.179000
@<TRIPOS>BOND
     1     1     3 ar  
     2     1    21 ar  
     3     1    35 1   
     4     2     3 ar  
     5     2    22 ar  
     6     2    36 1   
     7     3     5 1   
     8     4     5 ar  
     9     4     6 ar  
    10     4    60 1   
    11     5    23 ar  
    12     6    24 ar  
    13     6    28 1   
    14     7    23 ar  
    15     7    24 ar  
    16     7    25 1   
    17     8    21 ar  
    18     8    22 ar  
    19     8    27 1   
    20     9    26 1   
    21     9    29 2   
    22     9    32 1   
    23    10    11 1   
    24    10    17 1   
    25    10    37 1   
    26    10    38 1   
    27    11    26 1   
    28    11    39 1   
    29    11    40 1   
    30    12    15 1   
    31    12    25 1   
    32    12    41 1   
    33    12    42 1   
    34    13    16 1   
    35    13    25 1   
    36    13    43 1   
    37    13    44 1   
    38    14    17 1   
    39    14    26 1   
    40    14    45 1   
    41    14    46 1   
    42    15    30 1   
    43    15    47 1   
    44    15    48 1   
    45    16    30 1   
    46    16    49 1   
    47    16    50 1   
    48    17    18 1   
    49    17    28 1   
    50    18    31 1   
    51    18    51 1   
    52    18    52 1   
    53    19    20 1   
    54    19    32 1   
    55    19    53 1   
    56    19    54 1   
    57    20    33 1   
    58    20    34 1   
    59    20    55 1   
    60    27    56 1   
    61    27    57 1   
    62    28    58 1   
    63    31    59 1   
@<TRIPOS>SUBSTRUCTURE
     1 VXY         1 TEMP              0 ****  ****    0 ROOT
