@<TRIPOS>MOLECULE
VXZ
   19    19     1     0     0
SMALL
abcg2


@<TRIPOS>ATOM
      1 O1         -74.6920    23.2360    39.4510 o          1 VXZ      -0.720867
      2 C1         -72.3400    19.6140    41.9580 ca         1 VXZ      -0.269000
      3 C5         -72.9170    21.6820    43.0910 ca         1 VXZ      -0.251600
      4 C6         -72.9480    22.6200    44.2900 c          1 VXZ       0.726600
      5 C4         -73.5870    22.0660    41.9310 ca         1 VXZ       0.042000
      6 O4         -73.4910    23.7270    44.1270 o          1 VXZ      -0.748000
      7 C3         -73.6440    21.2670    40.8030 ca         1 VXZ      -0.315500
      8 O3         -72.4390    22.2080    45.3610 o          1 VXZ      -0.748000
      9 C2         -73.0180    20.0220    40.8310 ca         1 VXZ       0.003000
     10 C          -72.2600    20.4280    43.1050 ca         1 VXZ       0.343000
     11 S          -74.5420    21.7720    39.3490 s6         1 VXZ       1.281100
     12 H1         -71.8430    18.6510    41.9660 ha         1 VXZ       0.061000
     13 H2         -74.0740    23.0320    41.9290 ha         1 VXZ       0.145000
     14 H4         -73.0440    19.3700    39.9660 ha         1 VXZ       0.092000
     15 H5         -71.6820    20.5470    45.0160 hn         1 VXZ       0.464000
     16 H6         -71.3440    19.0270    44.2610 hn         1 VXZ       0.464000
     17 N          -71.5180    20.0130    44.1700 nv         1 VXZ      -1.127000
     18 O          -73.7050    21.3510    38.2090 o          1 VXZ      -0.720867
     19 O2         -75.8340    21.0590    39.4020 o          1 VXZ      -0.720867
@<TRIPOS>BOND
     1     1    11 1   
     2     2     9 ar  
     3     2    10 ar  
     4     2    12 1   
     5     3     4 1   
     6     3     5 ar  
     7     3    10 ar  
     8     4     6 1   
     9     4     8 1   
    10     5     7 ar  
    11     5    13 1   
    12     7     9 ar  
    13     7    11 1   
    14     9    14 1   
    15    10    17 1   
    16    11    18 1   
    17    11    19 1   
    18    15    17 1   
    19    16    17 1   
@<TRIPOS>SUBSTRUCTURE
     1 VXZ         1 TEMP              0 ****  ****    0 ROOT
