@<TRIPOS>MOLECULE
VXZ
   19    19     1     0     0
SMALL
No Charge or Current Charge


@<TRIPOS>ATOM
      1 O1         -74.5790    23.2360    39.3960 o          1 VXZ      -0.720867
      2 C1         -72.2330    19.6560    41.9440 ca         1 VXZ      -0.269000
      3 C5         -72.9350    21.6820    43.1000 ca         1 VXZ      -0.251600
      4 C6         -72.9540    22.5860    44.3020 c          1 VXZ       0.726600
      5 C4         -73.6520    22.0670    41.9450 ca         1 VXZ       0.042000
      6 O4         -72.9790    23.7920    44.1090 o          1 VXZ      -0.748000
      7 C3         -73.6610    21.2540    40.7930 ca         1 VXZ      -0.315500
      8 O3         -72.9990    22.0920    45.4210 o          1 VXZ      -0.748000
      9 C2         -72.9530    20.0390    40.8020 ca         1 VXZ       0.003000
     10 C          -72.2210    20.4700    43.0820 ca         1 VXZ       0.343000
     11 S          -74.6260    21.7690    39.3030 s6         1 VXZ       1.281100
     12 H1         -71.6850    18.7180    41.9350 ha         1 VXZ       0.061000
     13 H2         -74.2130    23.0010    41.9490 ha         1 VXZ       0.145000
     14 H4         -72.9570    19.3890    39.9290 ha         1 VXZ       0.092000
     15 H5         -71.7400    20.5100    45.0390 hn         1 VXZ       0.464000
     16 H6         -71.2480    19.0670    44.2150 hn         1 VXZ       0.464000
     17 N          -71.5000    20.0500    44.1580 nv         1 VXZ      -1.127000
     18 O          -73.8570    21.1600    38.2070 o          1 VXZ      -0.720867
     19 O2         -75.9310    21.1540    39.5860 o          1 VXZ      -0.720867
@<TRIPOS>BOND
     1     1    11 1   
     2     2     9 ar  
     3     2    10 ar  
     4     2    12 1   
     5     3     4 1   
     6     3     5 ar  
     7     3    10 ar  
     8     4     6 1   
     9     4     8 1   
    10     5     7 ar  
    11     5    13 1   
    12     7     9 ar  
    13     7    11 1   
    14     9    14 1   
    15    10    17 1   
    16    11    18 1   
    17    11    19 1   
    18    15    17 1   
    19    16    17 1   
@<TRIPOS>SUBSTRUCTURE
     1 VXZ         1 TEMP              0 ****  ****    0 ROOT
