@<TRIPOS>MOLECULE
VY1
   59    63     1     0     0
SMALL
No Charge or Current Charge


@<TRIPOS>ATOM
      1 C22        -15.1200     7.5550    24.2980 ca         1 VY1       0.186900
      2 C27        -16.2310     5.7280    25.3860 ca         1 VY1       0.186900
      3 C21        -16.0470     7.1280    25.2800 cp         1 VY1      -0.334500
      4 C15        -18.1010     8.0400    26.5410 ca         1 VY1      -0.304300
      5 C20        -16.7460     8.1030    26.1650 cp         1 VY1       0.291500
      6 C16        -18.6480     9.0340    27.2860 ca         1 VY1       0.389900
      7 C18        -16.6560    10.1110    27.3400 ca         1 VY1       0.433900
      8 C24        -14.7460     5.3920    23.6900 ca         1 VY1       0.390900
      9 C14        -19.0980     7.0080    26.0480 c5         1 VY1      -0.008100
     10 C8         -22.3230     9.1830    28.2530 c5         1 VY1      -0.101400
     11 C13        -20.4610     7.6440    26.5710 c5         1 VY1       0.211800
     12 C7         -22.9290    10.2450    29.2210 c5         1 VY1       0.214800
     13 C29        -16.4090    12.2030    28.7820 c6         1 VY1       0.189300
     14 C33        -14.3730    11.2080    27.6490 c6         1 VY1       0.189300
     15 C11        -20.6630    10.7470    28.9100 c5         1 VY1       0.203800
     16 C30        -15.6650    13.5710    28.7670 c6         1 VY1       0.139100
     17 C32        -13.7390    12.6300    27.6940 c6         1 VY1       0.139100
     18 C9         -21.0500     9.8760    27.6810 c5         1 VY1       0.222500
     19 C1         -21.4160    15.0460    29.8590 c3         1 VY1       0.207100
     20 N23        -14.4710     6.6880    23.4980 nb         1 VY1      -0.256000
     21 N26        -15.5810     4.8570    24.5890 nb         1 VY1      -0.256000
     22 N19        -16.0320     9.1680    26.5880 nb         1 VY1      -0.301000
     23 N17        -17.9580    10.0990    27.7030 nb         1 VY1      -0.304000
     24 N12        -20.0120     8.8140    27.4110 nh         1 VY1      -0.765300
     25 N28        -15.8780    11.2240    27.7620 nh         1 VY1      -0.777300
     26 N6         -21.9720    11.3730    29.2030 n3         1 VY1      -0.742500
     27 N25        -14.0920     4.5170    22.8880 nv         1 VY1      -1.063900
     28 N2         -21.1410    13.6130    29.6660 n7         1 VY1      -0.925300
     29 O4         -21.3780    12.0050    31.6270 o          1 VY1      -0.552500
     30 O5         -23.4440    13.0340    30.4750 o          1 VY1      -0.552500
     31 O31        -14.2340    13.3840    28.8220 os         1 VY1      -0.445000
     32 S3         -22.0780    12.5140    30.4490 s6         1 VY1       1.272200
     33 H48        -14.9030     8.6110    24.1450 h4         1 VY1       0.031100
     34 H51        -16.8850     5.2920    26.1370 h4         1 VY1       0.031100
     35 H47        -19.0930     6.8900    24.9590 hc         1 VY1       0.057700
     36 H46        -18.9410     6.0240    26.4990 hc         1 VY1       0.057700
     37 H40        -23.0250     8.8980    27.4620 hc         1 VY1       0.063700
     38 H41        -22.0810     8.2750    28.8180 hc         1 VY1       0.063700
     39 H45        -21.0850     7.9740    25.7280 h1         1 VY1       0.048200
     40 H44        -21.0310     6.9100    27.1560 h1         1 VY1       0.048200
     41 H39        -23.9290    10.5660    28.9010 h1         1 VY1       0.057700
     42 H38        -23.0270     9.8190    30.2300 h1         1 VY1       0.057700
     43 H52        -17.4740    12.4160    28.6090 h1         1 VY1       0.065700
     44 H53        -16.3280    11.7710    29.7910 h1         1 VY1       0.065700
     45 H59        -14.0520    10.7430    26.7060 h1         1 VY1       0.065700
     46 H58        -13.9460    10.6070    28.4660 h1         1 VY1       0.065700
     47 H43        -20.2970    10.1350    29.7470 h1         1 VY1       0.081700
     48 H42        -19.8930    11.4880    28.6610 h1         1 VY1       0.081700
     49 H54        -15.9830    14.1760    29.6270 h1         1 VY1       0.052450
     50 H55        -15.9210    14.1230    27.8510 h1         1 VY1       0.052450
     51 H57        -12.6450    12.5460    27.7690 h1         1 VY1       0.052450
     52 H56        -13.9740    13.1710    26.7670 h1         1 VY1       0.052450
     53 H10        -21.2740    10.4920    26.7980 h1         1 VY1       0.049700
     54 H36        -20.7390    15.6530    29.2440 h1         1 VY1       0.045700
     55 H34        -22.4460    15.3010    29.5750 h1         1 VY1       0.045700
     56 H35        -21.2670    15.3360    30.9080 h1         1 VY1       0.045700
     57 H49        -13.2890     4.8530    22.3590 hn         1 VY1       0.503500
     58 H50        -14.0870     3.5320    23.1430 hn         1 VY1       0.503500
     59 H37        -21.3780    13.3280    28.7190 hn         1 VY1       0.473000
@<TRIPOS>BOND
     1     1     3 ar  
     2     1    20 ar  
     3     1    33 1   
     4     2     3 ar  
     5     2    21 ar  
     6     2    34 1   
     7     3     5 1   
     8     4     5 ar  
     9     4     6 ar  
    10     4     9 1   
    11     5    22 ar  
    12     6    23 ar  
    13     6    24 1   
    14     7    22 ar  
    15     7    23 ar  
    16     7    25 1   
    17     8    20 ar  
    18     8    21 ar  
    19     8    27 1   
    20     9    11 1   
    21     9    35 1   
    22     9    36 1   
    23    10    12 1   
    24    10    18 1   
    25    10    37 1   
    26    10    38 1   
    27    11    24 1   
    28    11    39 1   
    29    11    40 1   
    30    12    26 1   
    31    12    41 1   
    32    12    42 1   
    33    13    16 1   
    34    13    25 1   
    35    13    43 1   
    36    13    44 1   
    37    14    17 1   
    38    14    25 1   
    39    14    45 1   
    40    14    46 1   
    41    15    18 1   
    42    15    26 1   
    43    15    47 1   
    44    15    48 1   
    45    16    31 1   
    46    16    49 1   
    47    16    50 1   
    48    17    31 1   
    49    17    51 1   
    50    17    52 1   
    51    18    24 1   
    52    18    53 1   
    53    19    28 1   
    54    19    54 1   
    55    19    55 1   
    56    19    56 1   
    57    26    32 1   
    58    27    57 1   
    59    27    58 1   
    60    28    32 1   
    61    28    59 1   
    62    29    32 2   
    63    30    32 2   
@<TRIPOS>SUBSTRUCTURE
     1 VY1         1 TEMP              0 ****  ****    0 ROOT
