@<TRIPOS>MOLECULE
VY1
   59    63     1     0     0
SMALL
bcc


@<TRIPOS>ATOM
      1 C22        -14.7960     7.5510    24.8740 ca         1 VY1       0.515200
      2 C27        -16.3740     5.8600    25.2550 ca         1 VY1       0.515200
      3 C21        -16.0170     7.1930    25.4480 cp         1 VY1      -0.465100
      4 C15        -18.1620     8.0280    26.4470 ca         1 VY1      -0.434900
      5 C20        -16.8140     8.1590    26.2120 cp         1 VY1       0.619800
      6 C16        -18.7460     9.0570    27.2080 ca         1 VY1       0.718200
      7 C18        -16.7990    10.1490    27.3610 ca         1 VY1       0.959900
      8 C24        -14.4980     5.4650    24.0520 ca         1 VY1       0.916900
      9 C14        -19.2350     7.0340    26.1100 c5         1 VY1      -0.008100
     10 C8         -22.4000     9.4110    28.0270 c5         1 VY1      -0.101400
     11 C13        -20.5170     7.8150    26.4450 c5         1 VY1       0.211800
     12 C7         -23.0050    10.5060    28.8910 c5         1 VY1       0.214800
     13 C29        -16.6850    12.2170    28.6880 c6         1 VY1       0.189300
     14 C33        -14.6720    11.3450    27.6450 c6         1 VY1       0.189300
     15 C11        -20.6120    10.3570    29.2760 c5         1 VY1       0.203800
     16 C30        -16.2120    13.6100    28.3120 c6         1 VY1       0.115900
     17 C32        -14.2900    12.7770    27.3150 c6         1 VY1       0.115900
     18 C9         -20.9560     9.8730    27.8640 c5         1 VY1       0.222500
     19 C1         -20.3030    14.3510    29.8600 c3         1 VY1       0.207100
     20 N23        -14.0430     6.7200    24.1840 nb         1 VY1      -0.782000
     21 N26        -15.6400     5.0010    24.5750 nb         1 VY1      -0.782000
     22 N19        -16.1380     9.2300    26.6720 nb         1 VY1      -0.827000
     23 N17        -18.1070    10.1080    27.6720 nb         1 VY1      -0.830000
     24 N12        -20.0710     8.8370    27.3930 nh         1 VY1      -0.765300
     25 N28        -16.1110    11.2440    27.7810 nh         1 VY1      -0.777300
     26 N6         -21.8950    10.8440    29.7970 n3         1 VY1      -0.742500
     27 N25        -13.7580     4.6140    23.3300 nv         1 VY1      -0.953500
     28 N2         -21.3140    13.3810    29.4560 n7         1 VY1      -0.870100
     29 O4         -20.9050    12.2270    31.6180 o          1 VY1      -0.623300
     30 O5         -23.2840    12.5810    30.8710 o          1 VY1      -0.623300
     31 O31        -14.8060    13.6900    28.2590 os         1 VY1      -0.398600
     32 S3         -21.8950    12.2910    30.5580 s6         1 VY1       1.413800
     33 H48        -14.4270     8.5650    24.9840 h4         1 VY1       0.031100
     34 H51        -17.2810     5.4560    25.6900 h4         1 VY1       0.031100
     35 H47        -19.2290     6.7070    25.0690 hc         1 VY1       0.057700
     36 H46        -19.1630     6.1380    26.7340 hc         1 VY1       0.057700
     37 H40        -22.9340     9.3010    27.0850 hc         1 VY1       0.063700
     38 H41        -22.4280     8.4560    28.5550 hc         1 VY1       0.063700
     39 H45        -20.9330     8.2850    25.5460 h1         1 VY1       0.048200
     40 H44        -21.2860     7.1810    26.8820 h1         1 VY1       0.048200
     41 H39        -23.3080    11.3560    28.2730 h1         1 VY1       0.057700
     42 H38        -23.8740    10.1630    29.4470 h1         1 VY1       0.057700
     43 H52        -17.7700    12.1780    28.6310 h1         1 VY1       0.065700
     44 H53        -16.3980    11.9890    29.7230 h1         1 VY1       0.065700
     45 H59        -14.3310    10.6870    26.8510 h1         1 VY1       0.065700
     46 H58        -14.1790    11.0300    28.5740 h1         1 VY1       0.065700
     47 H43        -20.2430     9.5310    29.8860 h1         1 VY1       0.081700
     48 H42        -19.8530    11.1360    29.2590 h1         1 VY1       0.081700
     49 H54        -16.5550    14.3290    29.0580 h1         1 VY1       0.052450
     50 H55        -16.6500    13.8900    27.3430 h1         1 VY1       0.052450
     51 H57        -13.2040    12.8790    27.3200 h1         1 VY1       0.052450
     52 H56        -14.6500    13.0240    26.3070 h1         1 VY1       0.052450
     53 H10        -20.9370    10.7370    27.1830 h1         1 VY1       0.049700
     54 H36        -20.0960    14.9720    28.9910 h1         1 VY1       0.045700
     55 H34        -20.6150    15.0020    30.6790 h1         1 VY1       0.045700
     56 H35        -19.3810    13.8490    30.1410 h1         1 VY1       0.045700
     57 H49        -12.8430     4.8860    23.0170 hn         1 VY1       0.448300
     58 H50        -14.0000     3.6400    23.2990 hn         1 VY1       0.448300
     59 H37        -22.0570    13.7800    28.8950 hn         1 VY1       0.417800
@<TRIPOS>BOND
     1     1     3 ar  
     2     1    20 ar  
     3     1    33 1   
     4     2     3 ar  
     5     2    21 ar  
     6     2    34 1   
     7     3     5 1   
     8     4     5 ar  
     9     4     6 ar  
    10     4     9 1   
    11     5    22 ar  
    12     6    23 ar  
    13     6    24 1   
    14     7    22 ar  
    15     7    23 ar  
    16     7    25 1   
    17     8    20 ar  
    18     8    21 ar  
    19     8    27 1   
    20     9    11 1   
    21     9    35 1   
    22     9    36 1   
    23    10    12 1   
    24    10    18 1   
    25    10    37 1   
    26    10    38 1   
    27    11    24 1   
    28    11    39 1   
    29    11    40 1   
    30    12    26 1   
    31    12    41 1   
    32    12    42 1   
    33    13    16 1   
    34    13    25 1   
    35    13    43 1   
    36    13    44 1   
    37    14    17 1   
    38    14    25 1   
    39    14    45 1   
    40    14    46 1   
    41    15    18 1   
    42    15    26 1   
    43    15    47 1   
    44    15    48 1   
    45    16    31 1   
    46    16    49 1   
    47    16    50 1   
    48    17    31 1   
    49    17    51 1   
    50    17    52 1   
    51    18    24 1   
    52    18    53 1   
    53    19    28 1   
    54    19    54 1   
    55    19    55 1   
    56    19    56 1   
    57    26    32 1   
    58    27    57 1   
    59    27    58 1   
    60    28    32 1   
    61    28    59 1   
    62    29    32 2   
    63    30    32 2   
@<TRIPOS>SUBSTRUCTURE
     1 VY1         1 TEMP              0 ****  ****    0 ROOT
