@<TRIPOS>MOLECULE
VY2
   28    28     1     0     0
SMALL
No Charge or Current Charge


@<TRIPOS>ATOM
      1 C7          -0.0220    11.9480   -36.3570 ca         1 VY2      -0.133000
      2 C8           0.1750    13.3390   -36.3030 ca         1 VY2      -0.049300
      3 C9          -0.7800    14.1540   -35.6640 ca         1 VY2      -0.133000
      4 O1          -5.2260    15.2010   -33.0240 o          1 VY2      -0.494000
      5 C1          -5.7560    17.8200   -32.3940 c3         1 VY2       0.164600
      6 C5          -2.1120    12.1910   -35.1380 ca         1 VY2      -0.159000
      7 C6          -1.1630    11.3750   -35.7760 ca         1 VY2      -0.080000
      8 C4          -1.9330    13.5860   -35.0740 ca         1 VY2      -0.024000
      9 C3          -3.0730    15.7100   -34.1630 c          1 VY2       0.548100
     10 C2          -4.4150    16.0590   -33.3680 c          1 VY2       0.511100
     11 O2          -2.2590    16.5690   -34.5070 o          1 VY2      -0.537100
     12 O           -4.5770    17.4040   -33.1060 os         1 VY2      -0.407100
     13 C           -5.6850    19.3470   -32.2390 c3         1 VY2      -0.097100
     14 N           -2.9370    14.3470   -34.4130 ns         1 VY2      -0.129000
     15 C10          1.4090    13.9640   -36.9360 c3         1 VY2      -0.048800
     16 H1           0.7070    11.3100   -36.8520 ha         1 VY2       0.115000
     17 H2          -0.6070    15.2250   -35.6400 ha         1 VY2       0.146000
     18 H3          -6.6650    17.5490   -32.9470 h1         1 VY2       0.053200
     19 H4          -5.8000    17.3520   -31.4010 h1         1 VY2       0.053200
     20 H5          -2.9920    11.7330   -34.6910 ha         1 VY2       0.115000
     21 H6          -1.3130    10.2980   -35.8190 ha         1 VY2       0.115000
     22 H7          -6.5660    19.7150   -31.6990 hc         1 VY2       0.052700
     23 H8          -4.7910    19.6370   -31.6750 hc         1 VY2       0.052700
     24 H9          -5.6550    19.8340   -33.2210 hc         1 VY2       0.052700
     25 H10         -3.7030    13.7890   -34.0550 hn         1 VY2       0.178000
     26 H11          1.1870    14.3280   -37.9460 hc         1 VY2       0.045367
     27 H12          1.7730    14.8140   -36.3460 hc         1 VY2       0.045367
     28 H13          2.2310    13.2430   -37.0130 hc         1 VY2       0.045367
@<TRIPOS>BOND
     1     1     2 ar  
     2     1     7 ar  
     3     1    16 1   
     4     2     3 ar  
     5     2    15 1   
     6     3     8 ar  
     7     3    17 1   
     8     4    10 2   
     9     5    12 1   
    10     5    13 1   
    11     5    18 1   
    12     5    19 1   
    13     6     7 ar  
    14     6     8 ar  
    15     6    20 1   
    16     7    21 1   
    17     8    14 1   
    18     9    10 1   
    19     9    11 2   
    20     9    14 1   
    21    10    12 1   
    22    13    22 1   
    23    13    23 1   
    24    13    24 1   
    25    14    25 1   
    26    15    26 1   
    27    15    27 1   
    28    15    28 1   
@<TRIPOS>SUBSTRUCTURE
     1 VY2         1 TEMP              0 ****  ****    0 ROOT
