@<TRIPOS>MOLECULE
VY2
   28    28     1     0     0
SMALL
abcg2


@<TRIPOS>ATOM
      1 C7          -0.0700    12.0280   -36.3070 ca         1 VY2      -0.133000
      2 C8           0.1080    13.4100   -36.2460 ca         1 VY2      -0.049300
      3 C9          -0.8540    14.1940   -35.6080 ca         1 VY2      -0.133000
      4 O1          -5.1880    15.1680   -33.0820 o          1 VY2      -0.494000
      5 C1          -5.6620    17.7600   -32.4710 c3         1 VY2       0.164600
      6 C5          -2.1560    12.2150   -35.1130 ca         1 VY2      -0.159000
      7 C6          -1.1970    11.4380   -35.7440 ca         1 VY2      -0.080000
      8 C4          -1.9860    13.6010   -35.0430 ca         1 VY2      -0.024000
      9 C3          -3.0720    15.6610   -34.1630 c          1 VY2       0.548100
     10 C2          -4.3760    16.0060   -33.4070 c          1 VY2       0.511100
     11 O2          -2.2650    16.5190   -34.4850 o          1 VY2      -0.537100
     12 O           -4.4710    17.2990   -33.1800 os         1 VY2      -0.407100
     13 C           -5.5400    19.2530   -32.3020 c3         1 VY2      -0.097100
     14 N           -2.9910    14.3350   -34.3880 ns         1 VY2      -0.129000
     15 C10          1.3080    14.0600   -36.8820 c3         1 VY2      -0.048800
     16 H1           0.6770    11.4120   -36.7940 ha         1 VY2       0.115000
     17 H2          -0.7250    15.2620   -35.5480 ha         1 VY2       0.146000
     18 H3          -6.5320    17.4810   -33.0650 h1         1 VY2       0.053200
     19 H4          -5.7060    17.2380   -31.5160 h1         1 VY2       0.053200
     20 H5          -3.0330    11.7580   -34.6710 ha         1 VY2       0.115000
     21 H6          -1.3290    10.3650   -35.7920 ha         1 VY2       0.115000
     22 H7          -6.4200    19.6240   -31.7730 hc         1 VY2       0.052700
     23 H8          -4.6550    19.5100   -31.7190 hc         1 VY2       0.052700
     24 H9          -5.4840    19.7540   -33.2700 hc         1 VY2       0.052700
     25 H10         -3.7750    13.8050   -34.0290 hn         1 VY2       0.178000
     26 H11          1.1150    14.2760   -37.9370 hc         1 VY2       0.045367
     27 H12          1.5530    15.0030   -36.3930 hc         1 VY2       0.045367
     28 H13          2.1790    13.4060   -36.8370 hc         1 VY2       0.045367
@<TRIPOS>BOND
     1     1     2 ar  
     2     1     7 ar  
     3     1    16 1   
     4     2     3 ar  
     5     2    15 1   
     6     3     8 ar  
     7     3    17 1   
     8     4    10 2   
     9     5    12 1   
    10     5    13 1   
    11     5    18 1   
    12     5    19 1   
    13     6     7 ar  
    14     6     8 ar  
    15     6    20 1   
    16     7    21 1   
    17     8    14 1   
    18     9    10 1   
    19     9    11 2   
    20     9    14 1   
    21    10    12 1   
    22    13    22 1   
    23    13    23 1   
    24    13    24 1   
    25    14    25 1   
    26    15    26 1   
    27    15    27 1   
    28    15    28 1   
@<TRIPOS>SUBSTRUCTURE
     1 VY2         1 TEMP              0 ****  ****    0 ROOT
