@<TRIPOS>MOLECULE
VY4
   69    73     1     0     0
SMALL
No Charge or Current Charge


@<TRIPOS>ATOM
      1 C24        -15.9790     5.7390    26.8740 ca         1 VY4       0.186400
      2 C29        -14.8460     7.3520    25.5060 ca         1 VY4       0.186400
      3 C23        -15.7700     7.1020    26.5500 cp         1 VY4      -0.334500
      4 C17        -17.7920     8.2430    27.6660 ca         1 VY4      -0.304300
      5 C22        -16.4390     8.2170    27.2770 cp         1 VY4       0.287500
      6 C18        -18.3090     9.3540    28.2490 ca         1 VY4       0.396900
      7 C20        -16.2930    10.3790    28.1320 ca         1 VY4       0.428900
      8 C26        -14.5200     5.1130    25.2380 ca         1 VY4       0.393900
      9 C6         -21.6030    12.8290    31.1390 c          1 VY4       0.659100
     10 C16        -18.8180     7.1700    27.3500 c5         1 VY4      -0.009100
     11 C10        -21.9760     9.7170    29.1840 c5         1 VY4      -0.104400
     12 C15        -20.1600     7.8990    27.8030 c5         1 VY4       0.209800
     13 C9         -22.6620    10.9680    29.7960 c5         1 VY4       0.121000
     14 C31        -15.9720    12.6220    29.3060 c6         1 VY4       0.187800
     15 C35        -13.9890    11.4660    28.2340 c6         1 VY4       0.187800
     16 C13        -20.2120    11.2330    29.7360 c5         1 VY4       0.126000
     17 C32        -15.2090    13.9650    29.1130 c6         1 VY4       0.140100
     18 C34        -13.3320    12.8720    28.0960 c6         1 VY4       0.140100
     19 C11        -20.6730    10.3100    28.5560 c5         1 VY4       0.235200
     20 C12        -20.8840    11.0650    27.2180 c3         1 VY4      -0.113100
     21 C1         -20.8780    15.7400    31.6540 c3         1 VY4      -0.108100
     22 C3         -20.6550    14.1760    33.7040 c3         1 VY4      -0.108100
     23 C4         -18.6390    14.7210    32.2650 c3         1 VY4      -0.108100
     24 C2         -20.1700    14.5060    32.2690 c3         1 VY4       0.224000
     25 N25        -15.3550     4.7420    26.2170 nb         1 VY4      -0.258000
     26 N28        -14.2240     6.3580    24.8440 nb         1 VY4      -0.258000
     27 N21        -15.6970     9.3170    27.5300 nb         1 VY4      -0.300000
     28 N19        -17.5920    10.4540    28.4950 nb         1 VY4      -0.303000
     29 N14        -19.6760     9.1900    28.4180 nh         1 VY4      -0.764300
     30 N30        -15.4890    11.5230    28.3890 nh         1 VY4      -0.772300
     31 N8         -21.4980    11.7370    30.2710 n          1 VY4      -0.422800
     32 N27        -13.8930     4.1110    24.5770 nv         1 VY4      -1.070900
     33 O7         -22.6720    13.2350    31.5670 o          1 VY4      -0.555000
     34 O33        -13.7790    13.7580    29.1450 os         1 VY4      -0.447000
     35 O5         -20.3640    13.3570    31.4150 os         1 VY4      -0.475100
     36 H58        -16.6320     5.4400    27.6900 h4         1 VY4       0.031600
     37 H61        -14.6110     8.3670    25.1870 h4         1 VY4       0.031600
     38 H57        -18.8400     6.8970    26.2890 hc         1 VY4       0.056700
     39 H56        -18.6660     6.2570    27.9340 hc         1 VY4       0.056700
     40 H47        -22.6180     9.2130    28.4530 hc         1 VY4       0.060700
     41 H48        -21.7480     8.9930    29.9750 hc         1 VY4       0.060700
     42 H55        -20.8130     8.0820    26.9390 h1         1 VY4       0.047700
     43 H54        -20.7100     7.2820    28.5270 h1         1 VY4       0.047700
     44 H46        -23.2240    11.5380    29.0440 h1         1 VY4       0.055200
     45 H45        -23.3470    10.7020    30.6130 h1         1 VY4       0.055200
     46 H62        -17.0390    12.8340    29.1420 h1         1 VY4       0.064200
     47 H63        -15.8650    12.3050    30.3540 h1         1 VY4       0.064200
     48 H69        -13.7070    10.8900    27.3400 h1         1 VY4       0.064200
     49 H68        -13.5450    10.9540    29.1000 h1         1 VY4       0.064200
     50 H53        -19.6760    10.6700    30.5110 h1         1 VY4       0.071200
     51 H52        -19.5630    12.0460    29.3860 h1         1 VY4       0.071200
     52 H64        -15.4900    14.6690    29.9080 h1         1 VY4       0.052700
     53 H65        -15.4860    14.4140    28.1480 h1         1 VY4       0.052700
     54 H67        -12.2390    12.7770    28.1460 h1         1 VY4       0.052700
     55 H66        -13.5900    13.3080    27.1210 h1         1 VY4       0.052700
     56 H51        -21.5730    11.9090    27.3330 hc         1 VY4       0.047367
     57 H49        -19.9360    11.4640    26.8390 hc         1 VY4       0.047367
     58 H50        -21.2970    10.4020    26.4490 hc         1 VY4       0.047367
     59 H36        -20.5530    16.6570    32.1580 hc         1 VY4       0.048478
     60 H38        -20.6370    15.8360    30.5890 hc         1 VY4       0.048478
     61 H37        -21.9670    15.6820    31.7590 hc         1 VY4       0.048478
     62 H40        -20.2590    13.2090    34.0370 hc         1 VY4       0.048478
     63 H41        -20.3110    14.9430    34.4090 hc         1 VY4       0.048478
     64 H39        -21.7480    14.1440    33.7700 hc         1 VY4       0.048478
     65 H43        -18.1200    13.8370    32.6560 hc         1 VY4       0.048478
     66 H42        -18.2740    14.9100    31.2480 hc         1 VY4       0.048478
     67 H44        -18.3640    15.5800    32.8900 hc         1 VY4       0.048478
     68 H60        -13.0890     4.3450    23.9980 hn         1 VY4       0.506500
     69 H59        -13.9020     3.1790    24.9850 hn         1 VY4       0.506500
@<TRIPOS>BOND
     1     1     3 ar  
     2     1    25 ar  
     3     1    36 1   
     4     2     3 ar  
     5     2    26 ar  
     6     2    37 1   
     7     3     5 1   
     8     4     5 ar  
     9     4     6 ar  
    10     4    10 1   
    11     5    27 ar  
    12     6    28 ar  
    13     6    29 1   
    14     7    27 ar  
    15     7    28 ar  
    16     7    30 1   
    17     8    25 ar  
    18     8    26 ar  
    19     8    32 1   
    20     9    31 1   
    21     9    33 2   
    22     9    35 1   
    23    10    12 1   
    24    10    38 1   
    25    10    39 1   
    26    11    13 1   
    27    11    19 1   
    28    11    40 1   
    29    11    41 1   
    30    12    29 1   
    31    12    42 1   
    32    12    43 1   
    33    13    31 1   
    34    13    44 1   
    35    13    45 1   
    36    14    17 1   
    37    14    30 1   
    38    14    46 1   
    39    14    47 1   
    40    15    18 1   
    41    15    30 1   
    42    15    48 1   
    43    15    49 1   
    44    16    19 1   
    45    16    31 1   
    46    16    50 1   
    47    16    51 1   
    48    17    34 1   
    49    17    52 1   
    50    17    53 1   
    51    18    34 1   
    52    18    54 1   
    53    18    55 1   
    54    19    20 1   
    55    19    29 1   
    56    20    56 1   
    57    20    57 1   
    58    20    58 1   
    59    21    24 1   
    60    21    59 1   
    61    21    60 1   
    62    21    61 1   
    63    22    24 1   
    64    22    62 1   
    65    22    63 1   
    66    22    64 1   
    67    23    24 1   
    68    23    65 1   
    69    23    66 1   
    70    23    67 1   
    71    24    35 1   
    72    32    68 1   
    73    32    69 1   
@<TRIPOS>SUBSTRUCTURE
     1 VY4         1 TEMP              0 ****  ****    0 ROOT
