@<TRIPOS>MOLECULE
VY4
   69    73     1     0     0
SMALL
bcc


@<TRIPOS>ATOM
      1 C24        -16.1520     5.8190    26.5720 ca         1 VY4       0.514700
      2 C29        -14.5130     7.3890    25.9890 ca         1 VY4       0.514700
      3 C23        -15.7410     7.1500    26.6090 cp         1 VY4      -0.465100
      4 C17        -17.8400     8.1860    27.5170 ca         1 VY4      -0.434900
      5 C22        -16.4910     8.2330    27.2570 cp         1 VY4       0.615800
      6 C18        -18.3830     9.3330    28.1260 ca         1 VY4       0.725200
      7 C20        -16.3850    10.3470    28.1470 ca         1 VY4       0.954900
      8 C26        -14.3070     5.2130    25.4090 ca         1 VY4       0.919900
      9 C6         -21.4540    12.7730    31.1470 c          1 VY4       0.775100
     10 C16        -18.9410     7.1860    27.3290 c5         1 VY4      -0.009100
     11 C10        -21.9580     9.8000    29.1390 c5         1 VY4      -0.104400
     12 C15        -20.2020     8.0240    27.6090 c5         1 VY4       0.209800
     13 C9         -22.5470    10.9980    29.8710 c5         1 VY4       0.121000
     14 C31        -16.1690    12.5000    29.3010 c6         1 VY4       0.187800
     15 C35        -14.2020    11.4480    28.3330 c6         1 VY4       0.187800
     16 C13        -20.1260    11.1520    29.8110 c5         1 VY4       0.126000
     17 C32        -15.5910    13.8390    28.8830 c6         1 VY4       0.116900
     18 C34        -13.7170    12.8370    27.9570 c6         1 VY4       0.116900
     19 C11        -20.6050    10.3090    28.6190 c5         1 VY4       0.235200
     20 C12        -20.7910    11.1890    27.3800 c3         1 VY4      -0.113100
     21 C1         -20.6880    15.6550    31.6160 c3         1 VY4      -0.108100
     22 C3         -20.4930    14.2110    33.6800 c3         1 VY4      -0.108100
     23 C4         -18.5130    14.5950    32.2090 c3         1 VY4      -0.108100
     24 C2         -20.0280    14.4330    32.2460 c3         1 VY4       0.200800
     25 N25        -15.4600     4.8580    25.9900 nb         1 VY4      -0.784000
     26 N28        -13.8020     6.4550    25.3930 nb         1 VY4      -0.784000
     27 N21        -15.7650     9.3240    27.5750 nb         1 VY4      -0.826000
     28 N19        -17.6920    10.4050    28.4450 nb         1 VY4      -0.829000
     29 N14        -19.7140     9.1930    28.3420 nh         1 VY4      -0.764300
     30 N30        -15.6470    11.4510    28.4460 nh         1 VY4      -0.772300
     31 N8         -21.3630    11.7000    30.3410 n          1 VY4      -0.489800
     32 N27        -13.6060     4.2540    24.7930 nv         1 VY4      -0.960500
     33 O7         -22.5130    13.2300    31.5400 o          1 VY4      -0.604000
     34 O33        -14.1820    13.8180    28.8580 os         1 VY4      -0.400600
     35 O5         -20.2450    13.2430    31.4490 os         1 VY4      -0.451900
     36 H58        -17.0700     5.5020    27.0520 h4         1 VY4       0.031600
     37 H61        -14.1020     8.3920    25.9790 h4         1 VY4       0.031600
     38 H57        -18.9720     6.7430    26.3330 hc         1 VY4       0.056700
     39 H56        -18.8630     6.3630    28.0460 hc         1 VY4       0.056700
     40 H47        -22.6130     9.4360    28.3460 hc         1 VY4       0.060700
     41 H48        -21.7900     8.9830    29.8440 hc         1 VY4       0.060700
     42 H55        -20.6830     8.3300    26.6740 h1         1 VY4       0.047700
     43 H54        -20.9360     7.4730    28.1950 h1         1 VY4       0.047700
     44 H46        -23.1390    11.6300    29.2040 h1         1 VY4       0.055200
     45 H45        -23.1910    10.6950    30.6970 h1         1 VY4       0.055200
     46 H62        -17.2520    12.5370    29.2200 h1         1 VY4       0.064200
     47 H63        -15.9230    12.2960    30.3520 h1         1 VY4       0.064200
     48 H69        -13.8940    10.7400    27.5680 h1         1 VY4       0.064200
     49 H68        -13.7430    11.1330    29.2790 h1         1 VY4       0.064200
     50 H53        -19.6190    10.5210    30.5480 h1         1 VY4       0.071200
     51 H52        -19.4390    11.9370    29.5100 h1         1 VY4       0.071200
     52 H64        -15.8960    14.6100    29.5940 h1         1 VY4       0.052700
     53 H65        -15.9880    14.1120    27.8950 h1         1 VY4       0.052700
     54 H67        -12.6270    12.8640    27.9750 h1         1 VY4       0.052700
     55 H66        -14.0460    13.0690    26.9340 h1         1 VY4       0.052700
     56 H51        -21.4670    12.0200    27.5830 hc         1 VY4       0.047367
     57 H49        -19.8380    11.6080    27.0570 hc         1 VY4       0.047367
     58 H50        -21.2150    10.6180    26.5530 hc         1 VY4       0.047367
     59 H36        -20.3190    16.5540    32.1120 hc         1 VY4       0.048478
     60 H38        -20.4300    15.7360    30.5590 hc         1 VY4       0.048478
     61 H37        -21.7710    15.6430    31.7100 hc         1 VY4       0.048478
     62 H40        -20.0160    13.3300    34.1120 hc         1 VY4       0.048478
     63 H41        -20.2100    15.0710    34.2890 hc         1 VY4       0.048478
     64 H39        -21.5720    14.0920    33.7520 hc         1 VY4       0.048478
     65 H43        -18.0060    13.7100    32.6000 hc         1 VY4       0.048478
     66 H42        -18.1590    14.7700    31.1920 hc         1 VY4       0.048478
     67 H44        -18.2150    15.4490    32.8180 hc         1 VY4       0.048478
     68 H60        -12.7120     4.4610    24.3840 hn         1 VY4       0.451300
     69 H59        -13.9160     3.2990    24.8200 hn         1 VY4       0.451300
@<TRIPOS>BOND
     1     1     3 ar  
     2     1    25 ar  
     3     1    36 1   
     4     2     3 ar  
     5     2    26 ar  
     6     2    37 1   
     7     3     5 1   
     8     4     5 ar  
     9     4     6 ar  
    10     4    10 1   
    11     5    27 ar  
    12     6    28 ar  
    13     6    29 1   
    14     7    27 ar  
    15     7    28 ar  
    16     7    30 1   
    17     8    25 ar  
    18     8    26 ar  
    19     8    32 1   
    20     9    31 1   
    21     9    33 2   
    22     9    35 1   
    23    10    12 1   
    24    10    38 1   
    25    10    39 1   
    26    11    13 1   
    27    11    19 1   
    28    11    40 1   
    29    11    41 1   
    30    12    29 1   
    31    12    42 1   
    32    12    43 1   
    33    13    31 1   
    34    13    44 1   
    35    13    45 1   
    36    14    17 1   
    37    14    30 1   
    38    14    46 1   
    39    14    47 1   
    40    15    18 1   
    41    15    30 1   
    42    15    48 1   
    43    15    49 1   
    44    16    19 1   
    45    16    31 1   
    46    16    50 1   
    47    16    51 1   
    48    17    34 1   
    49    17    52 1   
    50    17    53 1   
    51    18    34 1   
    52    18    54 1   
    53    18    55 1   
    54    19    20 1   
    55    19    29 1   
    56    20    56 1   
    57    20    57 1   
    58    20    58 1   
    59    21    24 1   
    60    21    59 1   
    61    21    60 1   
    62    21    61 1   
    63    22    24 1   
    64    22    62 1   
    65    22    63 1   
    66    22    64 1   
    67    23    24 1   
    68    23    65 1   
    69    23    66 1   
    70    23    67 1   
    71    24    35 1   
    72    32    68 1   
    73    32    69 1   
@<TRIPOS>SUBSTRUCTURE
     1 VY4         1 TEMP              0 ****  ****    0 ROOT
