@<TRIPOS>MOLECULE
VY6
   27    28     1     0     0
SMALL
abcg2


@<TRIPOS>ATOM
      1 C7          42.6440    27.8790    48.5190 c6         1 VY6       0.114100
      2 C8          40.6950    27.0930    47.4950 c6         1 VY6       0.114100
      3 C9          39.8430    27.9550    48.4170 c6         1 VY6       0.130800
      4 O1          38.8530    33.6970    50.2090 o          1 VY6      -0.723500
      5 C1          42.7020    32.9430    48.7900 cc         1 VY6       0.054900
      6 C6          41.8190    28.7440    49.4600 c6         1 VY6       0.130800
      7 C3          40.5370    32.5070    49.1160 cd         1 VY6      -0.158600
      8 O3          41.9160    26.7370    48.1120 os         1 VY6      -0.467000
      9 C2          41.1140    31.4850    48.4200 cc         1 VY6       0.106300
     10 O2          38.2820    31.8200    49.1440 o          1 VY6      -0.723500
     11 C           41.5870    33.4530    49.3530 cd         1 VY6      -0.149000
     12 O           42.4280    31.7500    48.2210 os         1 VY6      -0.291000
     13 N           40.5380    29.1440    48.8930 n3         1 VY6      -0.680600
     14 H1          43.5450    27.5260    49.0230 h1         1 VY6       0.038200
     15 H2          42.9660    28.4610    47.6430 h1         1 VY6       0.038200
     16 H3          40.1720    26.1650    47.2540 h1         1 VY6       0.038200
     17 H4          40.8830    27.6170    46.5460 h1         1 VY6       0.038200
     18 H5          38.9230    28.2500    47.9050 h1         1 VY6       0.061450
     19 H6          39.5490    27.3610    49.2890 h1         1 VY6       0.061450
     20 H8          43.7180    33.2960    48.7090 h4         1 VY6       0.019100
     21 H9          39.5990    30.3540    47.5130 h1         1 VY6       0.047700
     22 H10         41.2240    29.9220    47.0060 h1         1 VY6       0.047700
     23 H11         42.3930    29.6220    49.7620 h1         1 VY6       0.061450
     24 H12         41.6170    28.1770    50.3750 h1         1 VY6       0.061450
     25 H13         41.5070    34.3940    49.8730 ha         1 VY6       0.139000
     26 C5          40.6130    30.1920    47.8790 c3         1 VY6       0.153500
     27 C4          39.0970    32.6830    49.5260 c          1 VY6       0.735600
@<TRIPOS>BOND
     1     1     6 1   
     2     1     8 1   
     3     1    14 1   
     4     1    15 1   
     5     2     3 1   
     6     2     8 1   
     7     2    16 1   
     8     2    17 1   
     9     3    13 1   
    10     3    18 1   
    11     3    19 1   
    12     4    27 1   
    13     5    11 2   
    14     5    12 1   
    15     5    20 1   
    16     6    13 1   
    17     6    23 1   
    18     6    24 1   
    19     7     9 2   
    20     7    11 1   
    21     7    27 1   
    22     9    12 1   
    23     9    26 1   
    24    10    27 1   
    25    11    25 1   
    26    13    26 1   
    27    21    26 1   
    28    22    26 1   
@<TRIPOS>SUBSTRUCTURE
     1 VY6         1 TEMP              0 ****  ****    0 ROOT
