@<TRIPOS>MOLECULE
VY6
   27    28     1     0     0
SMALL
No Charge or Current Charge


@<TRIPOS>ATOM
      1 C7          42.6870    27.9070    48.4920 c6         1 VY6       0.114100
      2 C8          40.6810    27.0690    47.4360 c6         1 VY6       0.114100
      3 C9          39.7960    27.8690    48.4440 c6         1 VY6       0.130800
      4 O1          38.7950    33.7770    50.0460 o          1 VY6      -0.723500
      5 C1          42.7540    32.9530    48.8220 cc         1 VY6       0.054900
      6 C6          41.8290    28.7120    49.5170 c6         1 VY6       0.130800
      7 C3          40.5510    32.5830    49.0950 cd         1 VY6      -0.158600
      8 O3          41.9580    26.7410    48.0370 os         1 VY6      -0.467000
      9 C2          41.1170    31.5020    48.4530 cc         1 VY6       0.106300
     10 O2          38.3000    31.8930    49.1600 o          1 VY6      -0.723500
     11 C           41.6100    33.4960    49.3290 cd         1 VY6      -0.149000
     12 O           42.4690    31.7290    48.2700 os         1 VY6      -0.291000
     13 N           40.4920    29.0940    48.9530 n3         1 VY6      -0.680600
     14 H1          43.6240    27.5800    48.9650 h1         1 VY6       0.038200
     15 H2          42.9440    28.5360    47.6280 h1         1 VY6       0.038200
     16 H3          40.1710    26.1380    47.1500 h1         1 VY6       0.038200
     17 H4          40.8500    27.6570    46.5220 h1         1 VY6       0.038200
     18 H5          38.8430    28.1320    47.9620 h1         1 VY6       0.061450
     19 H6          39.5470    27.2040    49.2850 h1         1 VY6       0.061450
     20 H8          43.7750    33.3070    48.7820 h4         1 VY6       0.019100
     21 H9          39.5440    30.3850    47.5440 h1         1 VY6       0.047700
     22 H10         41.1540    29.8810    47.0780 h1         1 VY6       0.047700
     23 H11         42.3910    29.5960    49.8500 h1         1 VY6       0.061450
     24 H12         41.6890    28.0840    50.4100 h1         1 VY6       0.061450
     25 H13         41.5300    34.4610    49.8200 ha         1 VY6       0.139000
     26 C5          40.5490    30.1910    47.9400 c3         1 VY6       0.153500
     27 C4          39.1150    32.7510    49.4630 c          1 VY6       0.735600
@<TRIPOS>BOND
     1     1     6 1   
     2     1     8 1   
     3     1    14 1   
     4     1    15 1   
     5     2     3 1   
     6     2     8 1   
     7     2    16 1   
     8     2    17 1   
     9     3    13 1   
    10     3    18 1   
    11     3    19 1   
    12     4    27 1   
    13     5    11 2   
    14     5    12 1   
    15     5    20 1   
    16     6    13 1   
    17     6    23 1   
    18     6    24 1   
    19     7     9 2   
    20     7    11 1   
    21     7    27 1   
    22     9    12 1   
    23     9    26 1   
    24    10    27 1   
    25    11    25 1   
    26    13    26 1   
    27    21    26 1   
    28    22    26 1   
@<TRIPOS>SUBSTRUCTURE
     1 VY6         1 TEMP              0 ****  ****    0 ROOT
