@<TRIPOS>MOLECULE
VY7
   53    56     1     0     0
SMALL
No Charge or Current Charge


@<TRIPOS>ATOM
      1 C11         -2.8740    -2.7220    17.5680 c3         1 VY7       0.083600
      2 C13         -3.9340    -3.8280    19.5270 ca         1 VY7       0.115100
      3 C14         -3.1740    -3.0490    20.4330 ca         1 VY7      -0.195000
      4 C15         -3.3320    -3.2160    21.8180 ca         1 VY7      -0.119000
      5 C16         -4.2450    -4.1560    22.3130 ca         1 VY7      -0.127000
      6 C17         -5.0050    -4.9350    21.4250 ca         1 VY7      -0.145000
      7 C02          0.8810     1.1500    13.6590 ca         1 VY7       0.411900
      8 C04         -0.4700    -0.2510    14.8260 ca         1 VY7       0.163300
      9 C05         -0.9520    -0.7570    13.6370 ca         1 VY7      -0.335300
     10 C06         -1.9910    -1.8270    13.8350 c5         1 VY7       0.186300
     11 C08         -1.1150    -0.9130    16.0130 c5         1 VY7       0.052700
     12 C09         -2.9010    -2.7590    16.0180 c          1 VY7       0.600100
     13 C18         -4.8640    -4.7880    20.0270 ca         1 VY7       0.279000
     14 C20         -7.0510    -5.9580    19.4940 c6         1 VY7       0.192300
     15 C21         -7.9020    -6.1730    18.2150 c6         1 VY7      -0.054900
     16 C22         -7.2530    -7.2160    17.2620 c6         1 VY7      -0.189700
     17 C23         -5.7870    -6.7960    16.9560 c6         1 VY7      -0.054900
     18 C24         -4.9770    -6.5790    18.2600 c6         1 VY7       0.192300
     19 C25         -8.0840    -7.4410    15.9760 c          1 VY7       0.724000
     20 C28         -0.4470    -0.2310    12.4490 ca         1 VY7       0.447900
     21 N01          1.8180     2.1250    13.6640 nv         1 VY7      -1.059900
     22 N03          0.4630     0.7190    14.8610 nb         1 VY7      -0.268000
     23 N07         -2.0460    -1.8750    15.3300 n          1 VY7      -0.436800
     24 N19         -5.6470    -5.5970    19.1550 nh         1 VY7      -0.763400
     25 N30          0.4810     0.7330    12.4480 nb         1 VY7      -0.339000
     26 O10         -3.6310    -3.5210    15.3910 o          1 VY7      -0.530100
     27 O12         -3.8000    -3.6630    18.1550 os         1 VY7      -0.286100
     28 O26         -8.2610    -6.4960    15.2210 o          1 VY7      -0.737500
     29 O27         -8.5320    -8.5600    15.7730 o          1 VY7      -0.737500
     30 H1          -1.8480    -2.9460    17.8850 h1         1 VY7       0.039200
     31 H2          -3.1170    -1.6990    17.8810 h1         1 VY7       0.039200
     32 H3          -2.4600    -2.3090    20.0840 ha         1 VY7       0.101000
     33 H4          -2.7450    -2.6140    22.5090 ha         1 VY7       0.098000
     34 H5          -4.3640    -4.2850    23.3870 ha         1 VY7       0.101000
     35 H6          -5.6990    -5.6660    21.8280 ha         1 VY7       0.117000
     36 H7          -2.9590    -1.5410    13.4020 h1         1 VY7       0.061700
     37 H8          -1.6730    -2.7890    13.4100 h1         1 VY7       0.061700
     38 H9          -0.3700    -1.4300    16.6320 h1         1 VY7       0.065200
     39 H10         -1.6560    -0.1820    16.6280 h1         1 VY7       0.065200
     40 H11         -7.5130    -5.1600    20.0930 h1         1 VY7       0.014700
     41 H12         -7.0640    -6.8770    20.0980 h1         1 VY7       0.014700
     42 H13         -8.0180    -5.2120    17.6960 hc         1 VY7       0.053950
     43 H14         -8.9130    -6.4990    18.4970 hc         1 VY7       0.053950
     44 H15         -7.2170    -8.1770    17.7960 hc         1 VY7       0.015700
     45 H16         -5.2950    -7.5620    16.3420 hc         1 VY7       0.053950
     46 H17         -5.7750    -5.8690    16.3670 hc         1 VY7       0.053950
     47 H18         -4.8700    -7.5400    18.7840 h1         1 VY7       0.014700
     48 H19         -3.9650    -6.2390    17.9980 h1         1 VY7       0.014700
     49 H20          1.9900     2.6290    12.7970 hn         1 VY7       0.487500
     50 H21          1.9860     2.6330    14.5300 hn         1 VY7       0.487500
     51 H22         -0.2970    -0.3830    10.4270 hn         1 VY7       0.497000
     52 H23         -1.3410    -1.5460    11.1620 hn         1 VY7       0.497000
     53 N29         -0.8540    -0.6580    11.2320 nv         1 VY7      -1.075900
@<TRIPOS>BOND
     1     1    12 1   
     2     1    27 1   
     3     1    30 1   
     4     1    31 1   
     5     2     3 ar  
     6     2    13 ar  
     7     2    27 1   
     8     3     4 ar  
     9     3    32 1   
    10     4     5 ar  
    11     4    33 1   
    12     5     6 ar  
    13     5    34 1   
    14     6    13 ar  
    15     6    35 1   
    16     7    21 1   
    17     7    22 ar  
    18     7    25 ar  
    19     8     9 ar  
    20     8    11 1   
    21     8    22 ar  
    22     9    10 1   
    23     9    20 ar  
    24    10    23 1   
    25    10    36 1   
    26    10    37 1   
    27    11    23 1   
    28    11    38 1   
    29    11    39 1   
    30    12    23 1   
    31    12    26 2   
    32    13    24 1   
    33    14    15 1   
    34    14    24 1   
    35    14    40 1   
    36    14    41 1   
    37    15    16 1   
    38    15    42 1   
    39    15    43 1   
    40    16    17 1   
    41    16    19 1   
    42    16    44 1   
    43    17    18 1   
    44    17    45 1   
    45    17    46 1   
    46    18    24 1   
    47    18    47 1   
    48    18    48 1   
    49    19    28 1   
    50    19    29 1   
    51    20    25 ar  
    52    20    53 1   
    53    21    49 1   
    54    21    50 1   
    55    51    53 1   
    56    52    53 1   
@<TRIPOS>SUBSTRUCTURE
     1 VY7         1 TEMP              0 ****  ****    0 ROOT
