@<TRIPOS>MOLECULE
VY7
   53    56     1     0     0
SMALL
abcg2


@<TRIPOS>ATOM
      1 C11         -2.8880    -2.6560    17.6300 c3         1 VY7       0.083600
      2 C13         -3.8960    -3.7450    19.4780 ca         1 VY7       0.115100
      3 C14         -3.1240    -3.0550    20.4020 ca         1 VY7      -0.195000
      4 C15         -3.2870    -3.2870    21.7670 ca         1 VY7      -0.119000
      5 C16         -4.2180    -4.2100    22.2040 ca         1 VY7      -0.127000
      6 C17         -4.9760    -4.9170    21.2760 ca         1 VY7      -0.145000
      7 C02          0.7960     1.0260    13.7610 ca         1 VY7       0.411900
      8 C04         -0.5840    -0.3210    14.8780 ca         1 VY7       0.163300
      9 C05         -1.0880    -0.8540    13.7230 ca         1 VY7      -0.335300
     10 C06         -2.1330    -1.8830    13.9920 c5         1 VY7       0.186300
     11 C08         -1.2420    -0.9420    16.0700 c5         1 VY7       0.052700
     12 C09         -2.9750    -2.7310    16.1130 c          1 VY7       0.600100
     13 C18         -4.8370    -4.7090    19.9080 ca         1 VY7       0.279000
     14 C20         -6.9050    -5.8770    19.3700 c6         1 VY7       0.192300
     15 C21         -7.7770    -6.1720    18.1570 c6         1 VY7      -0.054900
     16 C22         -7.1050    -7.1520    17.1990 c6         1 VY7      -0.189700
     17 C23         -5.7040    -6.6570    16.8630 c6         1 VY7      -0.054900
     18 C24         -4.9070    -6.3430    18.1180 c6         1 VY7       0.192300
     19 C25         -7.9640    -7.4700    15.9510 c          1 VY7       0.724000
     20 C28         -0.5550    -0.3490    12.5260 ca         1 VY7       0.447900
     21 N01          1.7820     1.9510    13.7640 nv         1 VY7      -1.059900
     22 N03          0.3510     0.6140    14.9550 nb         1 VY7      -0.268000
     23 N07         -2.1620    -1.8900    15.4540 n          1 VY7      -0.436800
     24 N19         -5.6130    -5.3720    18.9480 nh         1 VY7      -0.763400
     25 N30          0.3880     0.5920    12.5680 nb         1 VY7      -0.339000
     26 O10         -3.7200    -3.5050    15.5380 o          1 VY7      -0.530100
     27 O12         -3.8330    -3.5480    18.1430 os         1 VY7      -0.286100
     28 O26         -7.3520    -7.7410    14.8980 o          1 VY7      -0.737500
     29 O27         -9.2030    -7.4590    16.1020 o          1 VY7      -0.737500
     30 H1          -1.8690    -2.9140    17.9480 h1         1 VY7       0.039200
     31 H2          -3.0780    -1.6280    17.9670 h1         1 VY7       0.039200
     32 H3          -2.4060    -2.3120    20.0810 ha         1 VY7       0.101000
     33 H4          -2.6840    -2.7320    22.4740 ha         1 VY7       0.098000
     34 H5          -4.3550    -4.3940    23.2620 ha         1 VY7       0.101000
     35 H6          -5.6920    -5.6480    21.6300 ha         1 VY7       0.117000
     36 H7          -3.1120    -1.6180    13.5800 h1         1 VY7       0.061700
     37 H8          -1.8750    -2.8720    13.6000 h1         1 VY7       0.061700
     38 H9          -0.5070    -1.4350    16.7140 h1         1 VY7       0.065200
     39 H10         -1.7600    -0.1890    16.6710 h1         1 VY7       0.065200
     40 H11         -7.3890    -5.1280    20.0000 h1         1 VY7       0.014700
     41 H12         -6.8120    -6.7950    19.9760 h1         1 VY7       0.014700
     42 H13         -7.9920    -5.2310    17.6390 hc         1 VY7       0.053950
     43 H14         -8.7330    -6.5700    18.4990 hc         1 VY7       0.053950
     44 H15         -6.9910    -8.1040    17.7430 hc         1 VY7       0.015700
     45 H16         -5.1620    -7.4010    16.2780 hc         1 VY7       0.053950
     46 H17         -5.7600    -5.7500    16.2520 hc         1 VY7       0.053950
     47 H18         -4.7300    -7.2720    18.6860 h1         1 VY7       0.014700
     48 H19         -3.9280    -5.9510    17.8460 h1         1 VY7       0.014700
     49 H20          1.9830     2.4370    12.9070 hn         1 VY7       0.487500
     50 H21          1.9590     2.4530    14.6170 hn         1 VY7       0.487500
     51 H22         -0.4910    -0.4560    10.4970 hn         1 VY7       0.497000
     52 H23         -1.5780    -1.5640    11.2280 hn         1 VY7       0.497000
     53 N29         -0.9770    -0.7640    11.3220 nv         1 VY7      -1.075900
@<TRIPOS>BOND
     1     1    12 1   
     2     1    27 1   
     3     1    30 1   
     4     1    31 1   
     5     2     3 ar  
     6     2    13 ar  
     7     2    27 1   
     8     3     4 ar  
     9     3    32 1   
    10     4     5 ar  
    11     4    33 1   
    12     5     6 ar  
    13     5    34 1   
    14     6    13 ar  
    15     6    35 1   
    16     7    21 1   
    17     7    22 ar  
    18     7    25 ar  
    19     8     9 ar  
    20     8    11 1   
    21     8    22 ar  
    22     9    10 1   
    23     9    20 ar  
    24    10    23 1   
    25    10    36 1   
    26    10    37 1   
    27    11    23 1   
    28    11    38 1   
    29    11    39 1   
    30    12    23 1   
    31    12    26 2   
    32    13    24 1   
    33    14    15 1   
    34    14    24 1   
    35    14    40 1   
    36    14    41 1   
    37    15    16 1   
    38    15    42 1   
    39    15    43 1   
    40    16    17 1   
    41    16    19 1   
    42    16    44 1   
    43    17    18 1   
    44    17    45 1   
    45    17    46 1   
    46    18    24 1   
    47    18    47 1   
    48    18    48 1   
    49    19    28 1   
    50    19    29 1   
    51    20    25 ar  
    52    20    53 1   
    53    21    49 1   
    54    21    50 1   
    55    51    53 1   
    56    52    53 1   
@<TRIPOS>SUBSTRUCTURE
     1 VY7         1 TEMP              0 ****  ****    0 ROOT
