@<TRIPOS>MOLECULE
VY8
   36    36     1     0     0
SMALL
abcg2


@<TRIPOS>ATOM
      1 C10         27.2030    19.4970    12.9380 ca         1 VY8      -0.042400
      2 C13         27.2800    18.6170    16.4650 c3         1 VY8       0.145900
      3 C15         24.8900    20.7750    13.7640 ca         1 VY8      -0.060000
      4 C17         26.4290    20.2000    12.0280 ca         1 VY8      -0.067000
      5 C11         26.8170    19.4270    14.2870 ca         1 VY8       0.142100
      6 C14         25.6510    20.0730    14.6910 ca         1 VY8      -0.200000
      7 C16         25.2690    20.8450    12.4330 ca         1 VY8      -0.149000
      8 C02         29.6230    19.3720    12.5530 cs         1 VY8       0.501400
      9 C04         30.9080    21.4610    12.9210 c3         1 VY8       0.099000
     10 C05         30.9120    22.5470    11.8540 c3         1 VY8       0.153800
     11 C07         29.5430    22.1300     9.9030 c3         1 VY8       0.161600
     12 C08         31.8770    22.5520     9.6340 c3         1 VY8       0.161600
     13 N03         29.7090    20.6550    12.9000 ns         1 VY8      -0.433900
     14 N06         30.8540    22.0130    10.5020 n3         1 VY8      -0.718600
     15 N09         28.3830    18.8370    12.5150 ns         1 VY8      -0.373100
     16 O12         27.6230    18.7290    15.0960 os         1 VY8      -0.327100
     17 S01         30.9470    18.3960    12.1670 s          1 VY8      -0.684400
     18 H133        28.0520    18.0070    16.9250 h1         1 VY8       0.046367
     19 H131        27.2580    19.5920    16.9590 h1         1 VY8       0.046367
     20 H132        26.3130    18.1270    16.6030 h1         1 VY8       0.046367
     21 H151        23.9880    21.2710    14.0980 ha         1 VY8       0.117000
     22 H171        26.7480    20.2340    10.9930 ha         1 VY8       0.130000
     23 H141        25.3240    20.0390    15.7210 ha         1 VY8       0.123000
     24 H161        24.6720    21.3920    11.7170 ha         1 VY8       0.123000
     25 H041        31.7600    20.7990    12.7810 h1         1 VY8       0.076700
     26 H042        31.0000    21.9230    13.9060 h1         1 VY8       0.076700
     27 H052        31.8350    23.1170    11.9910 h1         1 VY8       0.034200
     28 H051        30.0950    23.2590    12.0400 h1         1 VY8       0.034200
     29 H071        28.7860    21.6660    10.5340 h1         1 VY8       0.028700
     30 H073        29.2370    23.1740     9.7290 h1         1 VY8       0.028700
     31 H072        29.5260    21.6160     8.9410 h1         1 VY8       0.028700
     32 H083        32.8660    22.3770    10.0600 h1         1 VY8       0.028700
     33 H081        31.8430    22.0480     8.6660 h1         1 VY8       0.028700
     34 H082        31.7770    23.6320     9.4490 h1         1 VY8       0.028700
     35 H031        28.8490    21.1450    13.1040 hn         1 VY8       0.304500
     36 H091        28.3470    17.8420    12.3530 hn         1 VY8       0.361500
@<TRIPOS>BOND
     1     1     4 ar  
     2     1     5 ar  
     3     1    15 1   
     4     2    16 1   
     5     2    18 1   
     6     2    19 1   
     7     2    20 1   
     8     3     6 ar  
     9     3     7 ar  
    10     3    21 1   
    11     4     7 ar  
    12     4    22 1   
    13     5     6 ar  
    14     5    16 1   
    15     6    23 1   
    16     7    24 1   
    17     8    13 1   
    18     8    15 1   
    19     8    17 2   
    20     9    10 1   
    21     9    13 1   
    22     9    25 1   
    23     9    26 1   
    24    10    14 1   
    25    10    27 1   
    26    10    28 1   
    27    11    14 1   
    28    11    29 1   
    29    11    30 1   
    30    11    31 1   
    31    12    14 1   
    32    12    32 1   
    33    12    33 1   
    34    12    34 1   
    35    13    35 1   
    36    15    36 1   
@<TRIPOS>SUBSTRUCTURE
     1 VY8         1 TEMP              0 ****  ****    0 ROOT
