@<TRIPOS>MOLECULE
VY8
   36    36     1     0     0
SMALL
No Charge or Current Charge


@<TRIPOS>ATOM
      1 C10         27.5000    19.2290    13.2680 ca         1 VY8      -0.042400
      2 C13         26.2540    20.4240    16.5910 c3         1 VY8       0.145900
      3 C15         24.7420    19.3900    12.6920 ca         1 VY8      -0.060000
      4 C17         27.0120    18.8540    11.9970 ca         1 VY8      -0.067000
      5 C11         26.5910    19.6510    14.2650 ca         1 VY8       0.142100
      6 C14         25.2120    19.7380    13.9690 ca         1 VY8      -0.200000
      7 C16         25.6400    18.9420    11.7120 ca         1 VY8      -0.149000
      8 C02         30.0390    19.3000    12.8860 cs         1 VY8       0.501400
      9 C04         30.9130    20.2420    10.7040 c3         1 VY8       0.099000
     10 C05         31.6080    21.5850    11.0600 c3         1 VY8       0.153800
     11 C07         29.5710    22.9660    11.5000 c3         1 VY8       0.161600
     12 C08         31.6900    24.0390    10.8960 c3         1 VY8       0.161600
     13 N03         29.8610    19.8380    11.6460 ns         1 VY8      -0.433900
     14 N06         30.8460    22.8310    10.7550 n3         1 VY8      -0.718600
     15 N09         28.8830    19.1400    13.5950 ns         1 VY8      -0.373100
     16 O12         27.0950    19.9750    15.5130 os         1 VY8      -0.327100
     17 S01         31.5290    18.9780    13.5650 s          1 VY8      -0.684400
     18 H133        26.8580    20.6240    17.4850 h1         1 VY8       0.046367
     19 H131        25.7330    21.3510    16.3190 h1         1 VY8       0.046367
     20 H132        25.5080    19.6620    16.8480 h1         1 VY8       0.046367
     21 H151        23.6790    19.4550    12.4660 ha         1 VY8       0.117000
     22 H171        27.6820    18.4660    11.2330 ha         1 VY8       0.130000
     23 H141        24.4930    20.0700    14.7120 ha         1 VY8       0.123000
     24 H161        25.2700    18.6530    10.7300 ha         1 VY8       0.123000
     25 H041        30.4840    20.3150     9.6960 h1         1 VY8       0.076700
     26 H042        31.6740    19.4500    10.6790 h1         1 VY8       0.076700
     27 H052        32.5480    21.6060    10.4910 h1         1 VY8       0.034200
     28 H051        31.8910    21.5680    12.1210 h1         1 VY8       0.034200
     29 H071        28.8590    22.1830    11.2130 h1         1 VY8       0.028700
     30 H073        29.7410    22.9060    12.5830 h1         1 VY8       0.028700
     31 H072        29.0950    23.9310    11.2800 h1         1 VY8       0.028700
     32 H083        32.5890    23.9620    10.2700 h1         1 VY8       0.028700
     33 H081        31.1400    24.9370    10.5830 h1         1 VY8       0.028700
     34 H082        32.0070    24.1760    11.9390 h1         1 VY8       0.028700
     35 H031        28.9050    20.0510    11.3950 hn         1 VY8       0.304500
     36 H091        29.0510    18.8980    14.5650 hn         1 VY8       0.361500
@<TRIPOS>BOND
     1     1     4 ar  
     2     1     5 ar  
     3     1    15 1   
     4     2    16 1   
     5     2    18 1   
     6     2    19 1   
     7     2    20 1   
     8     3     6 ar  
     9     3     7 ar  
    10     3    21 1   
    11     4     7 ar  
    12     4    22 1   
    13     5     6 ar  
    14     5    16 1   
    15     6    23 1   
    16     7    24 1   
    17     8    13 1   
    18     8    15 1   
    19     8    17 2   
    20     9    10 1   
    21     9    13 1   
    22     9    25 1   
    23     9    26 1   
    24    10    14 1   
    25    10    27 1   
    26    10    28 1   
    27    11    14 1   
    28    11    29 1   
    29    11    30 1   
    30    11    31 1   
    31    12    14 1   
    32    12    32 1   
    33    12    33 1   
    34    12    34 1   
    35    13    35 1   
    36    15    36 1   
@<TRIPOS>SUBSTRUCTURE
     1 VY8         1 TEMP              0 ****  ****    0 ROOT
