@<TRIPOS>MOLECULE
VY9
   38    37     1     0     0
SMALL
abcg2


@<TRIPOS>ATOM
      1 C10          2.8580    -1.5730    38.0680 c3         1 VY9      -0.053400
      2 C13          0.8730     0.0080    35.0950 c3         1 VY9      -0.067400
      3 C15         -0.5470    -0.7650    33.1140 c3         1 VY9      -0.071400
      4 C11          1.7740    -1.4450    37.0050 c3         1 VY9      -0.073400
      5 C12          2.0380    -0.3010    36.0310 c3         1 VY9      -0.075400
      6 C14          0.4910    -1.1420    34.1680 c3         1 VY9      -0.078400
      7 C16         -1.8980    -0.3660    33.6940 c3         1 VY9      -0.086100
      8 C03          3.6270    -2.6370    40.2140 c3         1 VY9      -0.232400
      9 C04          2.6820    -2.7610    39.0140 c3         1 VY9       0.188500
     10 C07          2.7850    -6.4930    38.2110 c          1 VY9       0.715000
     11 N05          2.8290    -3.9980    38.2600 n7         1 VY9      -0.881400
     12 O01          4.2470    -0.9370    41.7640 o          1 VY9      -0.760000
     13 O08          3.7100    -6.4160    37.3790 o          1 VY9      -0.757500
     14 O09          2.1800    -7.5240    38.5660 o          1 VY9      -0.757500
     15 O17          2.0740    -1.2860    41.4140 o          1 VY9      -0.760000
     16 H1           2.8860    -0.6480    38.6510 hc         1 VY9       0.027700
     17 H2           3.8410    -1.6520    37.5850 hc         1 VY9       0.027700
     18 H3           0.0080     0.3070    35.6950 hc         1 VY9       0.019200
     19 H4           1.1310     0.8810    34.4850 hc         1 VY9       0.019200
     20 H5          -0.1560     0.0530    32.5010 hc         1 VY9       0.022200
     21 H6          -0.6860    -1.6100    32.4350 hc         1 VY9       0.022200
     22 H7           1.6870    -2.3890    36.4640 hc         1 VY9       0.044700
     23 H8           0.8070    -1.2820    37.4960 hc         1 VY9       0.044700
     24 H9           2.2790     0.6030    36.6000 hc         1 VY9       0.027700
     25 H10          2.9310    -0.5290    35.4370 hc         1 VY9       0.027700
     26 H11          1.3940    -1.5050    33.6640 hc         1 VY9       0.050200
     27 H12          0.1120    -1.9850    34.7540 hc         1 VY9       0.050200
     28 H13         -2.6250    -0.1730    32.9040 hc         1 VY9       0.025367
     29 H14         -2.3020    -1.1590    34.3260 hc         1 VY9       0.025367
     30 H15         -1.8340     0.5380    34.3010 hc         1 VY9       0.025367
     31 H16          3.6120    -3.5760    40.7810 hc         1 VY9       0.022700
     32 H17          4.6560    -2.5210    39.8560 hc         1 VY9       0.022700
     33 H18          1.6560    -2.7420    39.3970 h1         1 VY9       0.062700
     34 H19          2.7080    -5.2830    39.9690 h1         1 VY9       0.008700
     35 H20          1.2680    -5.1650    38.9880 h1         1 VY9       0.008700
     36 H21          3.7960    -4.1330    37.9900 hn         1 VY9       0.414000
     37 C06          2.3610    -5.1920    38.9240 c3         1 VY9       0.034800
     38 C02          3.2860    -1.5110    41.2100 c          1 VY9       0.715000
@<TRIPOS>BOND
     1     1     4 1   
     2     1     9 1   
     3     1    16 1   
     4     1    17 1   
     5     2     5 1   
     6     2     6 1   
     7     2    18 1   
     8     2    19 1   
     9     3     6 1   
    10     3     7 1   
    11     3    20 1   
    12     3    21 1   
    13     4     5 1   
    14     4    22 1   
    15     4    23 1   
    16     5    24 1   
    17     5    25 1   
    18     6    26 1   
    19     6    27 1   
    20     7    28 1   
    21     7    29 1   
    22     7    30 1   
    23     8     9 1   
    24     8    31 1   
    25     8    32 1   
    26     8    38 1   
    27     9    11 1   
    28     9    33 1   
    29    10    13 1   
    30    10    14 1   
    31    10    37 1   
    32    11    36 1   
    33    11    37 1   
    34    12    38 1   
    35    15    38 1   
    36    34    37 1   
    37    35    37 1   
@<TRIPOS>SUBSTRUCTURE
     1 VY9         1 TEMP              0 ****  ****    0 ROOT
