@<TRIPOS>MOLECULE
VY9
   38    37     1     0     0
SMALL
No Charge or Current Charge


@<TRIPOS>ATOM
      1 C10          2.8840    -1.4770    38.1600 c3         1 VY9      -0.053400
      2 C13          0.7140     0.0600    35.2010 c3         1 VY9      -0.067400
      3 C15         -0.4160    -0.7690    33.0100 c3         1 VY9      -0.071400
      4 C11          1.7560    -1.3790    37.1030 c3         1 VY9      -0.073400
      5 C12          1.8730    -0.1200    36.2100 c3         1 VY9      -0.075400
      6 C14          0.6390    -1.0360    34.1090 c3         1 VY9      -0.078400
      7 C16         -1.8750    -0.7740    33.5130 c3         1 VY9      -0.086100
      8 C03          3.8520    -2.7210    40.2260 c3         1 VY9      -0.232400
      9 C04          2.7600    -2.6920    39.1260 c3         1 VY9       0.188500
     10 C07          2.3030    -6.4920    38.0870 c          1 VY9       0.715000
     11 N05          2.8360    -3.9480    38.3440 n7         1 VY9      -0.881400
     12 O01          4.4090    -0.5220    40.9310 o          1 VY9      -0.760000
     13 O08          3.4130    -6.9810    37.9110 o          1 VY9      -0.757500
     14 O09          1.2810    -6.9800    37.6200 o          1 VY9      -0.757500
     15 O17          2.9270    -1.5740    42.0820 o          1 VY9      -0.760000
     16 H1           2.8680    -0.5510    38.7460 hc         1 VY9       0.027700
     17 H2           3.8560    -1.5100    37.6510 hc         1 VY9       0.027700
     18 H3          -0.2330     0.0990    35.7520 hc         1 VY9       0.019200
     19 H4           0.8330     1.0350    34.7120 hc         1 VY9       0.019200
     20 H5          -0.2040     0.1930    32.5270 hc         1 VY9       0.022200
     21 H6          -0.3140    -1.5370    32.2340 hc         1 VY9       0.022200
     22 H7           1.7760    -2.2740    36.4700 hc         1 VY9       0.044700
     23 H8           0.7850    -1.3690    37.6150 hc         1 VY9       0.044700
     24 H9           1.9060     0.7670    36.8550 hc         1 VY9       0.027700
     25 H10          2.8250    -0.1470    35.6660 hc         1 VY9       0.027700
     26 H11          1.6220    -1.1260    33.6300 hc         1 VY9       0.050200
     27 H12          0.4270    -2.0070    34.5730 hc         1 VY9       0.050200
     28 H13         -2.5670    -0.6580    32.6700 hc         1 VY9       0.025367
     29 H14         -2.1080    -1.7180    34.0190 hc         1 VY9       0.025367
     30 H15         -2.0550     0.0510    34.2120 hc         1 VY9       0.025367
     31 H16          3.6680    -3.6300    40.8120 hc         1 VY9       0.022700
     32 H17          4.8250    -2.7180    39.7180 hc         1 VY9       0.022700
     33 H18          1.7770    -2.6170    39.6170 h1         1 VY9       0.062700
     34 H19          2.6340    -5.3900    39.9220 h1         1 VY9       0.008700
     35 H20          1.1240    -4.9690    39.1170 h1         1 VY9       0.008700
     36 H21          3.8250    -4.1540    38.1610 hn         1 VY9       0.414000
     37 C06          2.1900    -5.1690    38.9430 c3         1 VY9       0.034800
     38 C02          3.7210    -1.5060    41.1560 c          1 VY9       0.715000
@<TRIPOS>BOND
     1     1     4 1   
     2     1     9 1   
     3     1    16 1   
     4     1    17 1   
     5     2     5 1   
     6     2     6 1   
     7     2    18 1   
     8     2    19 1   
     9     3     6 1   
    10     3     7 1   
    11     3    20 1   
    12     3    21 1   
    13     4     5 1   
    14     4    22 1   
    15     4    23 1   
    16     5    24 1   
    17     5    25 1   
    18     6    26 1   
    19     6    27 1   
    20     7    28 1   
    21     7    29 1   
    22     7    30 1   
    23     8     9 1   
    24     8    31 1   
    25     8    32 1   
    26     8    38 1   
    27     9    11 1   
    28     9    33 1   
    29    10    13 1   
    30    10    14 1   
    31    10    37 1   
    32    11    36 1   
    33    11    37 1   
    34    12    38 1   
    35    15    38 1   
    36    34    37 1   
    37    35    37 1   
@<TRIPOS>SUBSTRUCTURE
     1 VY9         1 TEMP              0 ****  ****    0 ROOT
