@<TRIPOS>MOLECULE
VYA
   44    45     1     0     0
SMALL
bcc


@<TRIPOS>ATOM
      1 C2           4.5430    -1.0460    -0.8190 ca         1 VYA      -0.206500
      2 C4           5.7100     0.8000     0.2010 ca         1 VYA      -0.206500
      3 C5           4.4960     1.3490     0.5620 ca         1 VYA      -0.071000
      4 C6           3.3340    -0.4880    -0.4520 ca         1 VYA      -0.071000
      5 C3          -3.4350    -4.0900     1.5830 c3         1 VYA      -0.089100
      6 C10         -4.5260    -2.7640    -0.2440 c3         1 VYA      -0.089100
      7 C20         -2.2530    -2.0940     0.6610 c3         1 VYA      -0.118400
      8 C16         -1.8870    -1.2000    -0.5420 c3         1 VYA       0.138200
      9 N           -1.2500    -1.8860    -1.6490 n8         1 VYA      -0.857800
     10 C14         -0.9830    -0.1140    -0.0550 cc         1 VYA       0.524900
     11 N15          0.3020    -0.1590    -0.1520 nd         1 VYA      -0.662300
     12 N13         -1.4580     0.9730     0.6470 n          1 VYA      -0.371300
     13 C17         -2.8220     1.4310     0.6850 c3         1 VYA      -0.064000
     14 C           -3.3030     2.0280    -0.6590 c          1 VYA       0.916600
     15 O19         -2.4980     2.0100    -1.6030 o          1 VYA      -0.817300
     16 C12         -0.3800     1.7610     0.9790 c          1 VYA       0.679700
     17 O25         -0.4230     2.8370     1.5440 o          1 VYA      -0.596500
     18 C9           0.7760     0.9810     0.4820 cd         1 VYA       0.035400
     19 C7           3.2800     0.7260     0.2480 ca         1 VYA      -0.070800
     20 C1           5.7420    -0.4070    -0.4960 ca         1 VYA       0.127100
     21 O3           6.9420    -0.9060    -0.8310 oh         1 VYA      -0.505100
     22 OXT         -4.4680     2.4640    -0.6430 o          1 VYA      -0.817300
     23 H1           4.5570    -1.9850    -1.3620 ha         1 VYA       0.129000
     24 H2           6.6360     1.3020     0.4520 ha         1 VYA       0.129000
     25 H3           4.4880     2.2870     1.1040 ha         1 VYA       0.150000
     26 H4           2.4160    -0.9970    -0.7080 ha         1 VYA       0.150000
     27 H5           2.1790     2.3080     1.1970 ha         1 VYA       0.132000
     28 H6          -4.0670    -4.9520     1.3640 hc         1 VYA       0.032867
     29 H7          -2.4970    -4.4630     1.9980 hc         1 VYA       0.032867
     30 H8          -3.9320    -3.5040     2.3600 hc         1 VYA       0.032867
     31 H9          -2.7130    -3.8930    -0.4100 hc         1 VYA       0.031700
     32 H10         -4.4090    -2.2690    -1.2100 hc         1 VYA       0.032867
     33 H11         -5.2110    -3.5990    -0.3990 hc         1 VYA       0.032867
     34 H12         -5.0130    -2.0600     0.4350 hc         1 VYA       0.032867
     35 H13         -2.7100    -1.4860     1.4510 hc         1 VYA       0.049200
     36 H14         -1.3250    -2.4940     1.0830 hc         1 VYA       0.049200
     37 H15         -2.7980    -0.7360    -0.9260 h1         1 VYA       0.112700
     38 H16         -0.4080    -2.3490    -1.3280 hn         1 VYA       0.335300
     39 H17         -1.8630    -2.6150    -1.9900 hn         1 VYA       0.335300
     40 H19         -3.4810     0.6150     0.9870 h1         1 VYA       0.045700
     41 H20         -2.9000     2.1850     1.4700 h1         1 VYA       0.045700
     42 H21          6.8440    -1.7390    -1.3060 ho         1 VYA       0.419000
     43 C8           2.0530     1.3720     0.6610 ce         1 VYA      -0.058200
     44 C21         -3.2000    -3.2500     0.3320 c3         1 VYA      -0.058700
@<TRIPOS>BOND
     1     1     4 ar  
     2     1    20 ar  
     3     1    23 1   
     4     2     3 ar  
     5     2    20 ar  
     6     2    24 1   
     7     3    19 ar  
     8     3    25 1   
     9     4    19 ar  
    10     4    26 1   
    11     5    28 1   
    12     5    29 1   
    13     5    30 1   
    14     5    44 1   
    15     6    32 1   
    16     6    33 1   
    17     6    34 1   
    18     6    44 1   
    19     7     8 1   
    20     7    35 1   
    21     7    36 1   
    22     7    44 1   
    23     8     9 1   
    24     8    10 1   
    25     8    37 1   
    26     9    38 1   
    27     9    39 1   
    28    10    11 2   
    29    10    12 1   
    30    11    18 1   
    31    12    13 1   
    32    12    16 1   
    33    13    14 1   
    34    13    40 1   
    35    13    41 1   
    36    14    15 1   
    37    14    22 1   
    38    16    17 2   
    39    16    18 1   
    40    18    43 2   
    41    19    43 1   
    42    20    21 1   
    43    21    42 1   
    44    27    43 1   
    45    31    44 1   
@<TRIPOS>SUBSTRUCTURE
     1 VYA         1 TEMP              0 ****  ****    0 ROOT
