@<TRIPOS>MOLECULE
VYA
   44    45     1     0     0
SMALL
No Charge or Current Charge


@<TRIPOS>ATOM
      1 C2           4.6970    -0.7090    -1.1580 ca         1 VYA      -0.188500
      2 C4           5.7140     0.4740     0.7020 ca         1 VYA      -0.188500
      3 C5           4.4830     1.0940     0.9830 ca         1 VYA      -0.053000
      4 C6           3.4640    -0.0910    -0.8790 ca         1 VYA      -0.053000
      5 C3          -3.4320    -4.1960     1.6570 c3         1 VYA      -0.089100
      6 C10         -4.6370    -2.6880     0.0020 c3         1 VYA      -0.089100
      7 C20         -2.1810    -2.2100     0.6550 c3         1 VYA      -0.118400
      8 C16         -1.8190    -1.3080    -0.5580 c3         1 VYA       0.138200
      9 N           -1.2410    -2.1530    -1.6560 n8         1 VYA      -0.968200
     10 C14         -0.9360    -0.1190    -0.1250 cc         1 VYA       0.524900
     11 N15          0.4070    -0.1610    -0.1420 nd         1 VYA      -0.662300
     12 N13         -1.4540     1.0700     0.3730 n          1 VYA      -0.304300
     13 C17         -2.8910     1.4320     0.5290 c3         1 VYA      -0.064000
     14 C           -3.4980     2.1520    -0.6950 c          1 VYA       0.706000
     15 O19         -3.4720     1.5740    -1.7720 o          1 VYA      -0.712000
     16 C12         -0.4290     1.9210     0.7020 c          1 VYA       0.537200
     17 O25         -0.5000     3.0540     1.1610 o          1 VYA      -0.521000
     18 C9           0.7450     1.0950     0.3560 cd         1 VYA       0.035400
     19 C7           3.3450     0.8100     0.2010 ca         1 VYA      -0.070800
     20 C1           5.8190    -0.4280    -0.3650 ca         1 VYA       0.127100
     21 O3           7.0140    -1.0230    -0.6320 oh         1 VYA      -0.544100
     22 OXT         -3.9520     3.2760    -0.5400 o          1 VYA      -0.712000
     23 H1           4.7700    -1.4000    -1.9940 ha         1 VYA       0.111000
     24 H2           6.5840     0.6950     1.3140 ha         1 VYA       0.111000
     25 H3           4.4130     1.7920     1.8150 ha         1 VYA       0.132000
     26 H4           2.6090    -0.3050    -1.5140 ha         1 VYA       0.132000
     27 H5           2.1720     2.4820     0.9780 ha         1 VYA       0.182000
     28 H6          -4.1630    -4.9920     1.4690 hc         1 VYA       0.032867
     29 H7          -2.4790    -4.6710     1.9180 hc         1 VYA       0.032867
     30 H8          -3.7740    -3.6140     2.5220 hc         1 VYA       0.032867
     31 H9          -2.9410    -3.9440    -0.4060 hc         1 VYA       0.031700
     32 H10         -4.5700    -2.1690    -0.9610 hc         1 VYA       0.032867
     33 H11         -5.3930    -3.4750    -0.1030 hc         1 VYA       0.032867
     34 H12         -4.9910    -1.9740     0.7560 hc         1 VYA       0.032867
     35 H13         -2.5150    -1.5670     1.4800 hc         1 VYA       0.049200
     36 H14         -1.2640    -2.6970     1.0110 hc         1 VYA       0.049200
     37 H15         -2.7500    -0.8720    -0.9420 h1         1 VYA       0.112700
     38 H16         -0.2990    -2.4490    -1.3730 hn         1 VYA       0.390500
     39 H17         -1.7700    -3.0290    -1.7160 hn         1 VYA       0.390500
     40 H19         -3.4840     0.5300     0.7200 h1         1 VYA       0.045700
     41 H20         -3.0010     2.0850     1.4050 h1         1 VYA       0.045700
     42 H21          6.8990    -1.6140    -1.4070 ho         1 VYA       0.458000
     43 C8           2.0570     1.4980     0.5200 ce         1 VYA      -0.108200
     44 C21         -3.2730    -3.2930     0.4130 c3         1 VYA      -0.058700
@<TRIPOS>BOND
     1     1     4 ar  
     2     1    20 ar  
     3     1    23 1   
     4     2     3 ar  
     5     2    20 ar  
     6     2    24 1   
     7     3    19 ar  
     8     3    25 1   
     9     4    19 ar  
    10     4    26 1   
    11     5    28 1   
    12     5    29 1   
    13     5    30 1   
    14     5    44 1   
    15     6    32 1   
    16     6    33 1   
    17     6    34 1   
    18     6    44 1   
    19     7     8 1   
    20     7    35 1   
    21     7    36 1   
    22     7    44 1   
    23     8     9 1   
    24     8    10 1   
    25     8    37 1   
    26     9    38 1   
    27     9    39 1   
    28    10    11 2   
    29    10    12 1   
    30    11    18 1   
    31    12    13 1   
    32    12    16 1   
    33    13    14 1   
    34    13    40 1   
    35    13    41 1   
    36    14    15 1   
    37    14    22 1   
    38    16    17 2   
    39    16    18 1   
    40    18    43 2   
    41    19    43 1   
    42    20    21 1   
    43    21    42 1   
    44    27    43 1   
    45    31    44 1   
@<TRIPOS>SUBSTRUCTURE
     1 VYA         1 TEMP              0 ****  ****    0 ROOT
