@<TRIPOS>MOLECULE
VYB
   24    24     1     0     0
SMALL
No Charge or Current Charge


@<TRIPOS>ATOM
      1 C7          -3.8570    15.5490   -36.0100 c3         1 VYB       0.149800
      2 C8          -5.1510    15.7260   -36.8490 c3         1 VYB       0.159600
      3 C1          -2.4350    12.4430   -34.2010 ca         1 VYB      -0.074000
      4 C5          -0.3430    11.7790   -35.2560 ca         1 VYB      -0.083000
      5 C6          -2.9860    14.8870   -33.7520 c3         1 VYB       0.210100
      6 C4           0.0380    13.1280   -35.3380 ca         1 VYB      -0.009900
      7 C3          -0.8130    14.1350   -34.8520 ca         1 VYB      -0.083000
      8 C2          -2.0570    13.7980   -34.2800 ca         1 VYB      -0.084300
      9 C           -1.5820    11.4360   -34.6870 ca         1 VYB      -0.114000
     10 N           -4.1580    15.0830   -34.6320 n7         1 VYB      -0.870400
     11 O           -4.8380    16.1930   -38.1710 oh         1 VYB      -0.669000
     12 H1          -3.2090    14.8270   -36.5270 h1         1 VYB       0.048700
     13 H2          -3.3240    16.5090   -35.9800 h1         1 VYB       0.048700
     14 H3          -5.8120    16.4430   -36.3430 h1         1 VYB       0.025700
     15 H4          -5.6780    14.7640   -36.9020 h1         1 VYB       0.025700
     16 H5          -3.3950    12.1720   -33.7640 ha         1 VYB       0.128000
     17 H6           0.3170    11.0010   -35.6330 ha         1 VYB       0.129000
     18 H7          -2.4260    15.8260   -33.6460 h1         1 VYB       0.040200
     19 H8          -3.3190    14.5990   -32.7450 h1         1 VYB       0.040200
     20 H9          -0.5090    15.1770   -34.9220 ha         1 VYB       0.126000
     21 H10         -1.8810    10.3920   -34.6230 ha         1 VYB       0.118000
     22 H11         -4.7670    15.7820   -34.1860 hn         1 VYB       0.410000
     23 H13         -5.6910    16.2790   -38.6530 ho         1 VYB       0.444000
     24 Br           1.7210    13.5970   -36.1150 br         1 VYB      -0.116100
@<TRIPOS>BOND
     1     1     2 1   
     2     1    10 1   
     3     1    12 1   
     4     1    13 1   
     5     2    11 1   
     6     2    14 1   
     7     2    15 1   
     8     3     8 ar  
     9     3     9 ar  
    10     3    16 1   
    11     4     6 ar  
    12     4     9 ar  
    13     4    17 1   
    14     5     8 1   
    15     5    10 1   
    16     5    18 1   
    17     5    19 1   
    18     6     7 ar  
    19     6    24 1   
    20     7     8 ar  
    21     7    20 1   
    22     9    21 1   
    23    10    22 1   
    24    11    23 1   
@<TRIPOS>SUBSTRUCTURE
     1 VYB         1 TEMP              0 ****  ****    0 ROOT
