@<TRIPOS>MOLECULE
VYB
   24    24     1     0     0
SMALL
abcg2


@<TRIPOS>ATOM
      1 C7          -3.9200    15.6020   -36.0020 c3         1 VYB       0.149800
      2 C8          -5.2350    15.6110   -36.7580 c3         1 VYB       0.159600
      3 C1          -2.4870    12.5530   -34.4230 ca         1 VYB      -0.074000
      4 C5          -0.3530    11.7450   -35.2180 ca         1 VYB      -0.083000
      5 C6          -2.8720    14.9920   -33.8870 c3         1 VYB       0.210100
      6 C4           0.1250    13.0430   -35.1500 ca         1 VYB      -0.009900
      7 C3          -0.6730    14.0990   -34.7310 ca         1 VYB      -0.083000
      8 C2          -1.9930    13.8570   -34.3600 ca         1 VYB      -0.084300
      9 C           -1.6760    11.5100   -34.8480 ca         1 VYB      -0.114000
     10 N           -4.1150    15.0820   -34.6530 n7         1 VYB      -0.870400
     11 O           -4.9950    16.1600   -38.0560 oh         1 VYB      -0.669000
     12 H1          -3.2110    14.9560   -36.5250 h1         1 VYB       0.048700
     13 H2          -3.4940    16.6170   -36.0020 h1         1 VYB       0.048700
     14 H3          -5.9710    16.2180   -36.2160 h1         1 VYB       0.025700
     15 H4          -5.6240    14.5910   -36.8320 h1         1 VYB       0.025700
     16 H5          -3.5160    12.3620   -34.1450 ha         1 VYB       0.128000
     17 H6           0.2820    10.9350   -35.5500 ha         1 VYB       0.129000
     18 H7          -2.2920    15.9260   -33.9230 h1         1 VYB       0.040200
     19 H8          -3.1430    14.8220   -32.8420 h1         1 VYB       0.040200
     20 H9          -0.2770    15.1050   -34.6970 ha         1 VYB       0.126000
     21 H10         -2.0670    10.5010   -34.8930 ha         1 VYB       0.118000
     22 H11         -4.7610    15.6810   -34.1510 hn         1 VYB       0.410000
     23 H13         -5.8260    16.1570   -38.5440 ho         1 VYB       0.444000
     24 BR           1.9410    13.4010   -35.6610 br         1 VYB      -0.116100
@<TRIPOS>BOND
     1     1     2 1   
     2     1    10 1   
     3     1    12 1   
     4     1    13 1   
     5     2    11 1   
     6     2    14 1   
     7     2    15 1   
     8     3     8 ar  
     9     3     9 ar  
    10     3    16 1   
    11     4     6 ar  
    12     4     9 ar  
    13     4    17 1   
    14     5     8 1   
    15     5    10 1   
    16     5    18 1   
    17     5    19 1   
    18     6     7 ar  
    19     6    24 1   
    20     7     8 ar  
    21     7    20 1   
    22     9    21 1   
    23    10    22 1   
    24    11    23 1   
@<TRIPOS>SUBSTRUCTURE
     1 VYB         1 TEMP              0 ****  ****    0 ROOT
