@<TRIPOS>MOLECULE
VYC
   62    65     1     0     0
SMALL
No Charge or Current Charge


@<TRIPOS>ATOM
      1 C15        -31.6000    40.2370   -13.8360 cp         1 VYC      -0.076000
      2 C16        -32.3870    40.3940   -12.6670 ca         1 VYC       0.180000
      3 C17        -32.0120    39.7910   -11.4550 ca         1 VYC      -0.152000
      4 C18        -30.8390    39.0210   -11.3850 ca         1 VYC      -0.078000
      5 C19        -30.0410    38.8590   -12.5300 ca         1 VYC      -0.127000
      6 C20        -30.4170    39.4620   -13.7430 ca         1 VYC      -0.063000
      7 C21        -32.6970    38.4740   -21.2610 ca         1 VYC      -0.233000
      8 C22        -32.5530    37.7330   -22.4560 ca         1 VYC       0.170100
      9 C23        -35.0000    37.4950   -22.7370 c3         1 VYC       0.218900
     10 C24        -35.9240    36.8400   -23.7480 ca         1 VYC      -0.154300
     11 C25        -36.0870    37.3860   -25.0340 ca         1 VYC      -0.028000
     12 C26        -36.9510    36.7350   -25.9320 ca         1 VYC      -0.079000
     13 C27        -37.6160    35.5700   -25.5120 ca         1 VYC       0.382900
     14 C28        -36.6280    35.6670   -23.4150 ca         1 VYC       0.392900
     15 O1         -28.7160    33.7980   -25.1110 oh         1 VYC      -0.650000
     16 C1         -29.7640    34.3400   -25.9360 c3         1 VYC       0.166600
     17 C2         -31.1410    34.3440   -25.1980 c3         1 VYC       0.167800
     18 N1         -31.1890    35.2240   -23.9980 n7         1 VYC      -0.856400
     19 C4         -31.2640    37.4580   -22.9640 ca         1 VYC      -0.109300
     20 C5         -30.1300    37.9210   -22.2700 ca         1 VYC      -0.072000
     21 C6         -30.2780    38.6550   -21.0830 ca         1 VYC      -0.147000
     22 C7         -31.5530    38.9350   -20.5750 ca         1 VYC       0.147100
     23 O2         -31.6300    39.6610   -19.4040 os         1 VYC      -0.368100
     24 C9         -32.6000    40.7850   -17.5110 ca         1 VYC      -0.088300
     25 C10        -32.6910    42.1910   -17.5400 ca         1 VYC      -0.074000
     26 C11        -32.4420    42.9430   -16.3820 ca         1 VYC      -0.110000
     27 C12        -32.0950    42.2970   -15.1870 ca         1 VYC      -0.081000
     28 C13        -31.9850    40.8880   -15.1250 cp         1 VYC      -0.022000
     29 C14        -32.2460    40.1340   -16.3040 ca         1 VYC       0.139000
     30 Cl1        -32.1620    38.3650   -16.2610 cl         1 VYC      -0.213000
     31 F1         -33.5260    41.1220   -12.7040 f          1 VYC      -0.180000
     32 N2         -37.4640    35.0370   -24.2750 nb         1 VYC      -0.661000
     33 C29        -37.1590    37.2380   -27.2560 cg         1 VYC       0.325000
     34 N3         -37.3230    37.6570   -28.3330 n1         1 VYC      -0.442000
     35 H1         -32.6330    39.9210   -10.5720 ha         1 VYC       0.133000
     36 H2         -30.5470    38.5540   -10.4460 ha         1 VYC       0.119000
     37 H3         -29.1300    38.2660   -12.4780 ha         1 VYC       0.121000
     38 H4         -29.7860    39.3340   -14.6200 ha         1 VYC       0.124000
     39 H5         -33.6840    38.6870   -20.8690 ha         1 VYC       0.124000
     40 H6         -35.2110    38.5720   -22.6990 h1         1 VYC       0.046700
     41 H7         -35.1780    37.0730   -21.7390 h1         1 VYC       0.046700
     42 H8         -35.5520    38.2890   -25.3270 ha         1 VYC       0.130000
     43 H9         -38.2930    35.0410   -26.1830 h4         1 VYC       0.034100
     44 H10        -36.5230    35.2160   -22.4290 h4         1 VYC       0.044100
     45 H11        -27.8810    33.8840   -25.6210 ho         1 VYC       0.436000
     46 H12        -29.8650    33.7360   -26.8470 h1         1 VYC       0.016700
     47 H13        -29.5130    35.3610   -26.2510 h1         1 VYC       0.016700
     48 H14        -31.9150    34.6500   -25.9160 h1         1 VYC       0.037200
     49 H15        -31.3720    33.3110   -24.9070 h1         1 VYC       0.037200
     50 H16        -30.1060    36.9160   -24.6910 h1         1 VYC       0.029700
     51 H17        -29.1330    37.7100   -22.6520 ha         1 VYC       0.116000
     52 H18        -29.3980    39.0100   -20.5530 ha         1 VYC       0.131000
     53 H19        -33.4920    40.6120   -19.4650 h1         1 VYC       0.054200
     54 H20        -33.4630    39.0960   -18.5500 h1         1 VYC       0.054200
     55 H21        -32.9560    42.7030   -18.4630 ha         1 VYC       0.136000
     56 H22        -32.5160    44.0280   -16.4120 ha         1 VYC       0.122000
     57 H23        -31.8990    42.8910   -14.2970 ha         1 VYC       0.125000
     58 H24        -32.0970    35.0800   -23.5420 hn         1 VYC       0.429000
     59 H25        -31.8470    36.9890   -24.9810 h1         1 VYC       0.029700
     60 C8         -32.8850    39.9990   -18.7860 c3         1 VYC       0.212900
     61 O3         -33.6470    37.2570   -23.1550 os         1 VYC      -0.356100
     62 C3         -31.0840    36.6720   -24.2570 c3         1 VYC       0.223100
@<TRIPOS>BOND
     1     1     2 ar  
     2     1     6 ar  
     3     1    28 1   
     4     2     3 ar  
     5     2    31 1   
     6     3     4 ar  
     7     3    35 1   
     8     4     5 ar  
     9     4    36 1   
    10     5     6 ar  
    11     5    37 1   
    12     6    38 1   
    13     7     8 ar  
    14     7    22 ar  
    15     7    39 1   
    16     8    19 ar  
    17     8    61 1   
    18     9    10 1   
    19     9    40 1   
    20     9    41 1   
    21     9    61 1   
    22    10    11 ar  
    23    10    14 ar  
    24    11    12 ar  
    25    11    42 1   
    26    12    13 ar  
    27    12    33 1   
    28    13    32 ar  
    29    13    43 1   
    30    14    32 ar  
    31    14    44 1   
    32    15    16 1   
    33    15    45 1   
    34    16    17 1   
    35    16    46 1   
    36    16    47 1   
    37    17    18 1   
    38    17    48 1   
    39    17    49 1   
    40    18    58 1   
    41    18    62 1   
    42    19    20 ar  
    43    19    62 1   
    44    20    21 ar  
    45    20    51 1   
    46    21    22 ar  
    47    21    52 1   
    48    22    23 1   
    49    23    60 1   
    50    24    25 ar  
    51    24    29 ar  
    52    24    60 1   
    53    25    26 ar  
    54    25    55 1   
    55    26    27 ar  
    56    26    56 1   
    57    27    28 ar  
    58    27    57 1   
    59    28    29 ar  
    60    29    30 1   
    61    33    34 3   
    62    50    62 1   
    63    53    60 1   
    64    54    60 1   
    65    59    62 1   
@<TRIPOS>SUBSTRUCTURE
     1 VYC         1 TEMP              0 ****  ****    0 ROOT
