@<TRIPOS>MOLECULE
VYC
   62    65     1     0     0
SMALL
abcg2


@<TRIPOS>ATOM
      1 C15        -31.8590    40.0160   -13.8250 cp         1 VYC      -0.076000
      2 C16        -32.5210    40.6810   -12.7970 ca         1 VYC       0.180000
      3 C17        -32.7200    40.1290   -11.5450 ca         1 VYC      -0.152000
      4 C18        -32.2650    38.8390   -11.3040 ca         1 VYC      -0.078000
      5 C19        -31.5970    38.1380   -12.3050 ca         1 VYC      -0.127000
      6 C20        -31.4190    38.7160   -13.5550 ca         1 VYC      -0.063000
      7 C21        -32.6670    38.9680   -21.5820 ca         1 VYC      -0.233000
      8 C22        -32.4270    38.1650   -22.7030 ca         1 VYC       0.170100
      9 C23        -34.7770    37.7120   -23.0650 c3         1 VYC       0.218900
     10 C24        -35.5980    36.5590   -23.5670 ca         1 VYC      -0.154300
     11 C25        -36.6780    36.7550   -24.4080 ca         1 VYC      -0.028000
     12 C26        -37.4220    35.6440   -24.8200 ca         1 VYC      -0.079000
     13 C27        -37.0200    34.3710   -24.4050 ca         1 VYC       0.382900
     14 C28        -35.3050    35.2490   -23.1750 ca         1 VYC       0.392900
     15 O1         -30.8880    33.3220   -24.8690 oh         1 VYC      -0.650000
     16 C1         -30.1280    34.2870   -25.5960 c3         1 VYC       0.166600
     17 C2         -31.0300    35.4350   -26.0120 c3         1 VYC       0.167800
     18 N1         -31.5700    36.1790   -24.8700 n7         1 VYC      -0.856400
     19 C4         -31.1790    38.1760   -23.3410 ca         1 VYC      -0.109300
     20 C5         -30.2100    39.0390   -22.8240 ca         1 VYC      -0.072000
     21 C6         -30.4310    39.8560   -21.7260 ca         1 VYC      -0.147000
     22 C7         -31.6740    39.8120   -21.1040 ca         1 VYC       0.147100
     23 O2         -31.8670    40.6000   -19.9940 os         1 VYC      -0.368100
     24 C9         -31.9290    40.6500   -17.5940 ca         1 VYC      -0.088300
     25 C10        -31.1720    41.8160   -17.6530 ca         1 VYC      -0.074000
     26 C11        -30.7110    42.4220   -16.4910 ca         1 VYC      -0.110000
     27 C12        -30.9600    41.8400   -15.2590 ca         1 VYC      -0.081000
     28 C13        -31.6740    40.6420   -15.1570 cp         1 VYC      -0.022000
     29 C14        -32.1460    40.0690   -16.3410 ca         1 VYC       0.139000
     30 CL1        -33.1220    38.6100   -16.2780 cl         1 VYC      -0.213000
     31 F1         -33.0000    41.9320   -13.0200 f          1 VYC      -0.180000
     32 N2         -36.0000    34.1820   -23.5730 nb         1 VYC      -0.661000
     33 C29        -38.5080    35.7870   -25.7310 cg         1 VYC       0.325000
     34 N3         -39.3940    35.8990   -26.4590 n1         1 VYC      -0.442000
     35 H1         -33.2640    40.6880   -10.7940 ha         1 VYC       0.133000
     36 H2         -32.4760    38.3680   -10.3530 ha         1 VYC       0.119000
     37 H3         -31.2310    37.1370   -12.1180 ha         1 VYC       0.121000
     38 H4         -30.8400    38.2000   -14.3100 ha         1 VYC       0.124000
     39 H5         -33.6090    38.9140   -21.0590 ha         1 VYC       0.124000
     40 H6         -34.9890    38.6130   -23.6460 h1         1 VYC       0.046700
     41 H7         -35.0240    37.9140   -22.0210 h1         1 VYC       0.046700
     42 H8         -36.9720    37.7500   -24.7160 ha         1 VYC       0.130000
     43 H9         -37.5670    33.4930   -24.7300 h4         1 VYC       0.034100
     44 H10        -34.4860    35.0650   -22.4910 h4         1 VYC       0.044100
     45 H11        -30.2830    32.6570   -24.5190 ho         1 VYC       0.436000
     46 H12        -29.7070    33.8340   -26.5030 h1         1 VYC       0.016700
     47 H13        -29.2850    34.6620   -25.0050 h1         1 VYC       0.016700
     48 H14        -30.4280    36.0930   -26.6560 h1         1 VYC       0.037200
     49 H15        -31.8590    35.0410   -26.6020 h1         1 VYC       0.037200
     50 H16        -29.7550    37.0060   -24.3640 h1         1 VYC       0.029700
     51 H17        -29.2440    39.0780   -23.3140 ha         1 VYC       0.116000
     52 H18        -29.6680    40.5340   -21.3700 ha         1 VYC       0.131000
     53 H19        -33.5040    39.9730   -18.8820 h1         1 VYC       0.054200
     54 H20        -32.1060    38.9080   -18.8250 h1         1 VYC       0.054200
     55 H21        -30.9530    42.2430   -18.6200 ha         1 VYC       0.136000
     56 H22        -30.1910    43.3700   -16.5440 ha         1 VYC       0.122000
     57 H23        -30.6040    42.3140   -14.3540 ha         1 VYC       0.125000
     58 H24        -32.5250    36.4480   -25.0560 hn         1 VYC       0.429000
     59 H25        -30.6940    38.0450   -25.4160 h1         1 VYC       0.029700
     60 C8         -32.4090    39.9580   -18.8450 c3         1 VYC       0.212900
     61 O3         -33.4030    37.3530   -23.2170 os         1 VYC      -0.356100
     62 C3         -30.7720    37.3580   -24.5550 c3         1 VYC       0.223100
@<TRIPOS>BOND
     1     1     2 ar  
     2     1     6 ar  
     3     1    28 1   
     4     2     3 ar  
     5     2    31 1   
     6     3     4 ar  
     7     3    35 1   
     8     4     5 ar  
     9     4    36 1   
    10     5     6 ar  
    11     5    37 1   
    12     6    38 1   
    13     7     8 ar  
    14     7    22 ar  
    15     7    39 1   
    16     8    19 ar  
    17     8    61 1   
    18     9    10 1   
    19     9    40 1   
    20     9    41 1   
    21     9    61 1   
    22    10    11 ar  
    23    10    14 ar  
    24    11    12 ar  
    25    11    42 1   
    26    12    13 ar  
    27    12    33 1   
    28    13    32 ar  
    29    13    43 1   
    30    14    32 ar  
    31    14    44 1   
    32    15    16 1   
    33    15    45 1   
    34    16    17 1   
    35    16    46 1   
    36    16    47 1   
    37    17    18 1   
    38    17    48 1   
    39    17    49 1   
    40    18    58 1   
    41    18    62 1   
    42    19    20 ar  
    43    19    62 1   
    44    20    21 ar  
    45    20    51 1   
    46    21    22 ar  
    47    21    52 1   
    48    22    23 1   
    49    23    60 1   
    50    24    25 ar  
    51    24    29 ar  
    52    24    60 1   
    53    25    26 ar  
    54    25    55 1   
    55    26    27 ar  
    56    26    56 1   
    57    27    28 ar  
    58    27    57 1   
    59    28    29 ar  
    60    29    30 1   
    61    33    34 3   
    62    50    62 1   
    63    53    60 1   
    64    54    60 1   
    65    59    62 1   
@<TRIPOS>SUBSTRUCTURE
     1 VYC         1 TEMP              0 ****  ****    0 ROOT
