@<TRIPOS>MOLECULE
VYD
   68    70     1     0     0
SMALL
No Charge or Current Charge


@<TRIPOS>ATOM
      1 C1         174.4870   198.5510    92.0280 ca         1 VYD      -0.103000
      2 C2         173.9340   197.2630    91.9990 ca         1 VYD      -0.100000
      3 C3         175.2010   198.9870    93.1570 ca         1 VYD      -0.120000
      4 C4         174.0810   196.4170    93.1090 ca         1 VYD      -0.099000
      5 C5         175.4130   198.1250    94.2560 ca         1 VYD      -0.042000
      6 C6         174.7900   196.8510    94.2430 ca         1 VYD       0.145000
      7 C7         175.2580   198.7580    96.6800 c          1 VYD       0.564000
      8 C9         176.0750   199.0610    97.9670 c6         1 VYD       0.068800
      9 C10        178.0360   201.9200    99.9940 c6         1 VYD      -0.052400
     10 C11        178.2860   204.3980   100.6920 c6         1 VYD       0.146800
     11 C12        177.1490   203.8320    98.5670 c6         1 VYD       0.139800
     12 C13        177.2470   199.4450    95.3260 c6         1 VYD       0.081000
     13 C14        178.8730   202.9720   100.7640 c6         1 VYD      -0.182700
     14 C15        177.7550   202.4020    98.5450 c6         1 VYD      -0.098700
     15 C16        178.1060   199.5140    96.6330 c6         1 VYD       0.172200
     16 C17        179.3410   200.4310    96.3810 c3         1 VYD      -0.085600
     17 C18        178.7110   198.1000    96.9310 c3         1 VYD      -0.085600
     18 C19        181.1420   197.7580   103.5620 c3         1 VYD      -0.087100
     19 C20        181.0210   199.2860   101.5380 c3         1 VYD      -0.087100
     20 C21        176.8250   201.4170    97.7730 c3         1 VYD       0.167800
     21 C22        180.6870   200.2400   103.9370 c3         1 VYD      -0.094400
     22 C23        181.0630   201.7240   103.6960 c3         1 VYD       0.111000
     23 C24        181.4020   199.1890   103.0360 c3         1 VYD      -0.063700
     24 N25        178.0350   204.7870    99.2830 n7         1 VYD      -0.831400
     25 N26        175.9850   198.6660    95.4650 n          1 VYD      -0.242400
     26 N27        177.2520   199.9820    97.7870 n3         1 VYD      -0.690600
     27 Cl         174.9850   195.7200    95.5860 cl         1 VYD      -0.184000
     28 H1         174.3510   199.2200    91.1800 ha         1 VYD       0.119000
     29 H2         173.3800   196.9250    91.1250 ha         1 VYD       0.120000
     30 H3         175.5850   200.0040    93.1740 ha         1 VYD       0.116000
     31 H4         173.6430   195.4220    93.0950 ha         1 VYD       0.133000
     32 H5         175.3720   199.4530    98.7150 h1         1 VYD       0.064700
     33 H6         176.4070   198.0860    98.3470 h1         1 VYD       0.064700
     34 H7         177.0860   201.7430   100.5190 hc         1 VYD       0.069200
     35 H8         178.5680   200.9580    99.9780 hc         1 VYD       0.069200
     36 H9         178.9800   205.1140   101.1590 h1         1 VYD       0.060700
     37 H10        177.3420   204.4360   101.2590 h1         1 VYD       0.060700
     38 H11        176.9950   204.1820    97.5350 h1         1 VYD       0.055200
     39 H12        176.1630   203.8090    99.0560 h1         1 VYD       0.055200
     40 H13        177.8510   199.0030    94.5210 h1         1 VYD       0.047700
     41 H14        176.9890   200.4640    95.0070 h1         1 VYD       0.047700
     42 H15        179.8380   203.0180   100.2400 hc         1 VYD       0.051700
     43 H16        178.7090   202.4580    98.0100 hc         1 VYD       0.043700
     44 H17        179.9380   200.5560    97.2920 hc         1 VYD       0.045200
     45 H18        180.0020   200.0140    95.6120 hc         1 VYD       0.045200
     46 H19        179.0460   201.4240    96.0240 hc         1 VYD       0.045200
     47 H20        179.2450   198.0940    97.8890 hc         1 VYD       0.045200
     48 H21        177.9490   197.3140    96.9710 hc         1 VYD       0.045200
     49 H22        179.4230   197.7950    96.1550 hc         1 VYD       0.045200
     50 H23        181.4700   197.6600   104.6040 hc         1 VYD       0.032033
     51 H24        180.0750   197.5110   103.5130 hc         1 VYD       0.032033
     52 H25        181.6940   197.0190   102.9680 hc         1 VYD       0.032033
     53 H26        181.4010   200.2090   101.0870 hc         1 VYD       0.032033
     54 H27        181.4540   198.4510   100.9740 hc         1 VYD       0.032033
     55 H28        179.9320   199.2550   101.4080 hc         1 VYD       0.032033
     56 H29        176.7020   201.7800    96.7440 h1         1 VYD       0.036200
     57 H30        175.8370   201.5100    98.2440 h1         1 VYD       0.036200
     58 H31        180.9360   200.0160   104.9820 hc         1 VYD       0.055700
     59 H32        179.6010   200.1160   103.8550 hc         1 VYD       0.055700
     60 H33        182.1560   201.8290   103.6940 h1         1 VYD       0.050200
     61 H34        180.6740   202.3290   104.5260 h1         1 VYD       0.050200
     62 H35        182.4830   199.3660   103.1120 hc         1 VYD       0.040700
     63 H36        178.9360   204.8140    98.7920 hn         1 VYD       0.398000
     64 H39        181.1730   202.4030   101.6720 hn         1 VYD       0.309500
     65 O29        174.0470   198.5700    96.7320 o          1 VYD      -0.505000
     66 C8         179.2050   202.5380   102.1990 c          1 VYD       0.598100
     67 N28        180.5340   202.2740   102.4470 ns         1 VYD      -0.511900
     68 O30        178.3440   202.4310   103.0600 o          1 VYD      -0.602100
@<TRIPOS>BOND
     1     1     2 ar  
     2     1     3 ar  
     3     1    28 1   
     4     2     4 ar  
     5     2    29 1   
     6     3     5 ar  
     7     3    30 1   
     8     4     6 ar  
     9     4    31 1   
    10     5     6 ar  
    11     5    25 1   
    12     6    27 1   
    13     7     8 1   
    14     7    25 1   
    15     7    65 2   
    16     8    26 1   
    17     8    32 1   
    18     8    33 1   
    19     9    13 1   
    20     9    14 1   
    21     9    34 1   
    22     9    35 1   
    23    10    13 1   
    24    10    24 1   
    25    10    36 1   
    26    10    37 1   
    27    11    14 1   
    28    11    24 1   
    29    11    38 1   
    30    11    39 1   
    31    12    15 1   
    32    12    25 1   
    33    12    40 1   
    34    12    41 1   
    35    13    42 1   
    36    13    66 1   
    37    14    20 1   
    38    14    43 1   
    39    15    16 1   
    40    15    17 1   
    41    15    26 1   
    42    16    44 1   
    43    16    45 1   
    44    16    46 1   
    45    17    47 1   
    46    17    48 1   
    47    17    49 1   
    48    18    23 1   
    49    18    50 1   
    50    18    51 1   
    51    18    52 1   
    52    19    23 1   
    53    19    53 1   
    54    19    54 1   
    55    19    55 1   
    56    20    26 1   
    57    20    56 1   
    58    20    57 1   
    59    21    22 1   
    60    21    23 1   
    61    21    58 1   
    62    21    59 1   
    63    22    60 1   
    64    22    61 1   
    65    22    67 1   
    66    23    62 1   
    67    24    63 1   
    68    64    67 1   
    69    66    67 1   
    70    66    68 2   
@<TRIPOS>SUBSTRUCTURE
     1 VYD         1 TEMP              0 ****  ****    0 ROOT
