@<TRIPOS>MOLECULE
VYD
   68    70     1     0     0
SMALL
abcg2


@<TRIPOS>ATOM
      1 C1         173.0270   198.5630    92.4320 ca         1 VYD      -0.103000
      2 C2         172.9550   197.2080    92.1300 ca         1 VYD      -0.100000
      3 C3         173.9020   199.0080    93.4140 ca         1 VYD      -0.120000
      4 C4         173.7290   196.2930    92.8350 ca         1 VYD      -0.099000
      5 C5         174.7000   198.1090    94.1170 ca         1 VYD      -0.042000
      6 C6         174.6140   196.7520    93.8020 ca         1 VYD       0.145000
      7 C7         175.1590   198.6260    96.4300 c          1 VYD       0.564000
      8 C9         175.5870   199.8710    97.1820 c6         1 VYD       0.068800
      9 C10        178.0770   201.5850    99.5870 c6         1 VYD      -0.052400
     10 C11        179.1150   203.6940   100.5010 c6         1 VYD       0.146800
     11 C12        178.1860   203.7380    98.2880 c6         1 VYD       0.139800
     12 C13        176.6450   199.5290    94.7560 c6         1 VYD       0.081000
     13 C14        179.1570   202.1490   100.5140 c6         1 VYD      -0.182700
     14 C15        178.1930   202.2090    98.1900 c6         1 VYD      -0.098700
     15 C16        177.6560   199.6520    95.9090 c6         1 VYD       0.172200
     16 C17        178.8630   200.4460    95.4000 c3         1 VYD      -0.085600
     17 C18        178.1900   198.2650    96.3130 c3         1 VYD      -0.085600
     18 C19        182.0800   198.0780   104.4330 c3         1 VYD      -0.087100
     19 C20        182.9160   200.3660   103.8290 c3         1 VYD      -0.087100
     20 C21        177.1020   201.7240    97.2360 c3         1 VYD       0.167800
     21 C22        180.4300   199.9730   104.4050 c3         1 VYD      -0.094400
     22 C23        180.1550   201.4600   104.1250 c3         1 VYD       0.111000
     23 C24        181.9010   199.5820   104.6630 c3         1 VYD      -0.063700
     24 N25        179.2510   204.2560    99.1570 n7         1 VYD      -0.831400
     25 N26        175.5840   198.5850    95.1250 n          1 VYD      -0.242400
     26 N27        177.0160   200.2500    97.1280 n3         1 VYD      -0.690600
     27 CL         175.6480   195.6050    94.6170 cl         1 VYD      -0.184000
     28 H1         172.4400   199.2790    91.8710 ha         1 VYD       0.119000
     29 H2         172.2400   196.8450    91.4030 ha         1 VYD       0.120000
     30 H3         173.9900   200.0650    93.6290 ha         1 VYD       0.116000
     31 H4         173.7050   195.2400    92.5910 ha         1 VYD       0.133000
     32 H5         174.9770   200.6680    96.7290 h1         1 VYD       0.064700
     33 H6         175.2610   199.7600    98.2160 h1         1 VYD       0.064700
     34 H7         177.0910   201.8000   100.0030 hc         1 VYD       0.069200
     35 H8         178.1970   200.5060    99.4960 hc         1 VYD       0.069200
     36 H9         179.8800   204.1140   101.1550 h1         1 VYD       0.060700
     37 H10        178.1390   204.0110   100.8820 h1         1 VYD       0.060700
     38 H11        178.2760   204.1880    97.2960 h1         1 VYD       0.055200
     39 H12        177.2360   204.0650    98.7250 h1         1 VYD       0.055200
     40 H13        177.1470   199.1240    93.8780 h1         1 VYD       0.047700
     41 H14        176.2460   200.5140    94.4910 h1         1 VYD       0.047700
     42 H15        180.1350   201.8280   100.1390 hc         1 VYD       0.051700
     43 H16        179.1670   201.9210    97.7810 hc         1 VYD       0.043700
     44 H17        179.6020   200.5450    96.1960 hc         1 VYD       0.045200
     45 H18        179.3370   199.8850    94.5950 hc         1 VYD       0.045200
     46 H19        178.6200   201.4450    95.0430 hc         1 VYD       0.045200
     47 H20        178.8800   198.3830    97.1480 hc         1 VYD       0.045200
     48 H21        177.4000   197.5890    96.6380 hc         1 VYD       0.045200
     49 H22        178.6900   197.7880    95.4690 hc         1 VYD       0.045200
     50 H23        181.3440   197.5030   105.0000 hc         1 VYD       0.032033
     51 H24        181.9570   197.8360   103.3730 hc         1 VYD       0.032033
     52 H25        183.0740   197.7480   104.7430 hc         1 VYD       0.032033
     53 H26        182.8270   201.4450   103.9620 hc         1 VYD       0.032033
     54 H27        183.9290   200.0990   104.1390 hc         1 VYD       0.032033
     55 H28        182.8190   200.1360   102.7650 hc         1 VYD       0.032033
     56 H29        177.2480   202.1860    96.2560 h1         1 VYD       0.036200
     57 H30        176.1450   202.1050    97.5980 h1         1 VYD       0.036200
     58 H31        179.8130   199.6570   105.2480 hc         1 VYD       0.055700
     59 H32        180.0930   199.4130   103.5280 hc         1 VYD       0.055700
     60 H33        180.9150   202.0930   104.5830 h1         1 VYD       0.050200
     61 H34        179.2050   201.7480   104.5740 h1         1 VYD       0.050200
     62 H35        182.1220   199.7680   105.7210 hc         1 VYD       0.040700
     63 H36        180.1470   203.9680    98.7720 hn         1 VYD       0.398000
     64 H39        180.9390   202.2070   102.2970 hn         1 VYD       0.309500
     65 O29        174.4490   197.7700    96.9350 o          1 VYD      -0.505000
     66 C8         179.0260   201.6280   101.9390 c          1 VYD       0.598100
     67 N28        180.1170   201.8000   102.7120 ns         1 VYD      -0.511900
     68 O30        177.9900   201.1190   102.3750 o          1 VYD      -0.602100
@<TRIPOS>BOND
     1     1     2 ar  
     2     1     3 ar  
     3     1    28 1   
     4     2     4 ar  
     5     2    29 1   
     6     3     5 ar  
     7     3    30 1   
     8     4     6 ar  
     9     4    31 1   
    10     5     6 ar  
    11     5    25 1   
    12     6    27 1   
    13     7     8 1   
    14     7    25 1   
    15     7    65 2   
    16     8    26 1   
    17     8    32 1   
    18     8    33 1   
    19     9    13 1   
    20     9    14 1   
    21     9    34 1   
    22     9    35 1   
    23    10    13 1   
    24    10    24 1   
    25    10    36 1   
    26    10    37 1   
    27    11    14 1   
    28    11    24 1   
    29    11    38 1   
    30    11    39 1   
    31    12    15 1   
    32    12    25 1   
    33    12    40 1   
    34    12    41 1   
    35    13    42 1   
    36    13    66 1   
    37    14    20 1   
    38    14    43 1   
    39    15    16 1   
    40    15    17 1   
    41    15    26 1   
    42    16    44 1   
    43    16    45 1   
    44    16    46 1   
    45    17    47 1   
    46    17    48 1   
    47    17    49 1   
    48    18    23 1   
    49    18    50 1   
    50    18    51 1   
    51    18    52 1   
    52    19    23 1   
    53    19    53 1   
    54    19    54 1   
    55    19    55 1   
    56    20    26 1   
    57    20    56 1   
    58    20    57 1   
    59    21    22 1   
    60    21    23 1   
    61    21    58 1   
    62    21    59 1   
    63    22    60 1   
    64    22    61 1   
    65    22    67 1   
    66    23    62 1   
    67    24    63 1   
    68    64    67 1   
    69    66    67 1   
    70    66    68 2   
@<TRIPOS>SUBSTRUCTURE
     1 VYD         1 TEMP              0 ****  ****    0 ROOT
