@<TRIPOS>MOLECULE
VYE
   65    67     1     0     0
SMALL
abcg2


@<TRIPOS>ATOM
      1 C1         179.7420   202.1700   100.7430 c6         1 VYE      -0.180700
      2 C2         179.2560   203.6320   100.5700 c6         1 VYE       0.150800
      3 N3         179.3290   204.0960    99.1900 n7         1 VYE      -0.842400
      4 C4         178.5340   203.2450    98.2960 c6         1 VYE       0.150800
      5 C5         178.9560   201.7730    98.3590 c6         1 VYE       0.176500
      6 C6         178.9590   201.2440    99.8070 c6         1 VYE      -0.091400
      7 N7         178.1480   200.9810    97.4150 n3         1 VYE      -0.777600
      8 C8         176.8380   200.6080    97.9060 c6         1 VYE       0.111800
      9 C9         175.9020   200.0300    96.8740 c          1 VYE       0.571000
     10 N10        176.4290   199.6790    95.6830 n          1 VYE      -0.236400
     11 C11        177.8580   199.7620    95.3650 c6         1 VYE       0.124000
     12 C12        178.7690   199.9300    96.5880 c6         1 VYE       0.215200
     13 O13        174.7050   199.8880    97.1360 o          1 VYE      -0.557000
     14 C14        180.1270   200.3630    96.0290 c3         1 VYE      -0.105600
     15 C15        178.9510   198.5870    97.3260 c3         1 VYE      -0.105600
     16 C16        175.5800   199.1490    94.6680 ca         1 VYE      -0.038000
     17 C17        175.3300   197.7810    94.5700 ca         1 VYE       0.129000
     18 C18        174.5440   197.2680    93.5470 ca         1 VYE      -0.102000
     19 C19        173.9940   198.1340    92.6090 ca         1 VYE      -0.098000
     20 C20        174.2690   199.4970    92.6670 ca         1 VYE      -0.105000
     21 C21        175.0580   199.9950    93.6950 ca         1 VYE      -0.093000
     22 CL1        175.9940   196.6900    95.7590 cl         1 VYE      -0.201000
     23 C23        179.5730   201.7700   102.2030 c          1 VYE       0.596100
     24 O24        178.6010   201.1250   102.6090 o          1 VYE      -0.605100
     25 N25        180.5440   202.1980   103.0310 ns         1 VYE      -0.507900
     26 C26        180.5910   201.8890   104.4530 c3         1 VYE       0.113000
     27 C27        181.1370   200.4850   104.7590 c3         1 VYE      -0.096400
     28 C28        182.6530   200.3590   105.0460 c3         1 VYE      -0.062700
     29 C29        183.1090   198.9360   104.7100 c3         1 VYE      -0.088100
     30 C30        183.5350   201.3620   104.2930 c3         1 VYE      -0.088100
     31 H1         180.8070   202.1550   100.4950 hc         1 VYE       0.049700
     32 H2         179.8610   204.2930   101.1920 h1         1 VYE       0.063700
     33 H3         178.2120   203.6980   100.9000 h1         1 VYE       0.063700
     34 H4         180.2980   204.0820    98.8840 hn         1 VYE       0.400000
     35 H6         178.6610   203.6080    97.2750 h1         1 VYE       0.066700
     36 H7         177.4900   203.3460    98.6080 h1         1 VYE       0.066700
     37 H8         179.9780   201.7130    97.9960 h1         1 VYE       0.046700
     38 H9         177.9410   201.1790   100.1850 hc         1 VYE       0.064700
     39 H10        179.4280   200.2580    99.8000 hc         1 VYE       0.064700
     40 H12        176.3320   201.4850    98.3090 h1         1 VYE       0.067200
     41 H13        176.8550   199.8800    98.7320 h1         1 VYE       0.067200
     42 H14        178.1350   198.8620    94.8150 h1         1 VYE       0.049200
     43 H15        178.0120   200.6070    94.6890 h1         1 VYE       0.049200
     44 H16        180.8700   200.4810    96.8160 hc         1 VYE       0.044200
     45 H17        180.4900   199.6000    95.3410 hc         1 VYE       0.044200
     46 H18        180.0470   201.3120    95.4980 hc         1 VYE       0.044200
     47 H19        179.6110   198.7130    98.1830 hc         1 VYE       0.044200
     48 H20        178.0030   198.1780    97.6750 hc         1 VYE       0.044200
     49 H21        179.3830   197.8480    96.6500 hc         1 VYE       0.044200
     50 H22        174.3010   196.2140    93.5350 ha         1 VYE       0.131000
     51 H23        173.3800   197.7330    91.8130 ha         1 VYE       0.119000
     52 H24        173.8560   200.1710    91.9290 ha         1 VYE       0.121000
     53 H25        175.2620   201.0560    93.7700 ha         1 VYE       0.127000
     54 H26        181.3150   202.7120   102.6370 hn         1 VYE       0.308500
     55 H27        181.2280   202.6460   104.9070 h1         1 VYE       0.053700
     56 H28        179.5980   202.0240   104.8850 h1         1 VYE       0.053700
     57 H29        180.5970   200.1060   105.6310 hc         1 VYE       0.053200
     58 H30        180.8760   199.8140   103.9380 hc         1 VYE       0.053200
     59 H31        182.8180   200.5170   106.1170 hc         1 VYE       0.044700
     60 H32        182.4690   198.1860   105.1870 hc         1 VYE       0.032200
     61 H33        183.0820   198.7790   103.6280 hc         1 VYE       0.032200
     62 H34        184.1310   198.7560   105.0520 hc         1 VYE       0.032200
     63 H35        183.2240   202.3940   104.4590 hc         1 VYE       0.032200
     64 H36        184.5630   201.2990   104.6570 hc         1 VYE       0.032200
     65 H37        183.5200   201.1740   103.2170 hc         1 VYE       0.032200
@<TRIPOS>BOND
     1     1     2 1   
     2     1     6 1   
     3     1    23 1   
     4     1    31 1   
     5     2     3 1   
     6     2    32 1   
     7     2    33 1   
     8     3     4 1   
     9     3    34 1   
    10     4     5 1   
    11     4    35 1   
    12     4    36 1   
    13     5     6 1   
    14     5     7 1   
    15     5    37 1   
    16     6    38 1   
    17     6    39 1   
    18     7     8 1   
    19     7    12 1   
    20     8     9 1   
    21     8    40 1   
    22     8    41 1   
    23     9    10 1   
    24     9    13 2   
    25    10    11 1   
    26    10    16 1   
    27    11    12 1   
    28    11    42 1   
    29    11    43 1   
    30    12    14 1   
    31    12    15 1   
    32    14    44 1   
    33    14    45 1   
    34    14    46 1   
    35    15    47 1   
    36    15    48 1   
    37    15    49 1   
    38    16    17 ar  
    39    16    21 ar  
    40    17    18 ar  
    41    17    22 1   
    42    18    19 ar  
    43    18    50 1   
    44    19    20 ar  
    45    19    51 1   
    46    20    21 ar  
    47    20    52 1   
    48    21    53 1   
    49    23    24 2   
    50    23    25 1   
    51    25    26 1   
    52    25    54 1   
    53    26    27 1   
    54    26    55 1   
    55    26    56 1   
    56    27    28 1   
    57    27    57 1   
    58    27    58 1   
    59    28    29 1   
    60    28    30 1   
    61    28    59 1   
    62    29    60 1   
    63    29    61 1   
    64    29    62 1   
    65    30    63 1   
    66    30    64 1   
    67    30    65 1   
@<TRIPOS>SUBSTRUCTURE
     1 VYE         1 TEMP              0 ****  ****    0 ROOT
