@<TRIPOS>MOLECULE
VYE
   65    67     1     0     0
SMALL
No Charge or Current Charge


@<TRIPOS>ATOM
      1 C1         179.4400   203.0880   101.0930 c6         1 VYE      -0.180700
      2 C2         178.7210   204.4540   101.0340 c6         1 VYE       0.150800
      3 N3         178.6570   204.9520    99.6380 n7         1 VYE      -0.842400
      4 C4         178.0300   203.9670    98.7050 c6         1 VYE       0.150800
      5 C5         178.7930   202.5970    98.6660 c6         1 VYE       0.176500
      6 C6         178.8570   202.0290   100.1160 c6         1 VYE      -0.091400
      7 N7         178.2060   201.6700    97.6250 n3         1 VYE      -0.777600
      8 C8         176.8460   201.1510    97.9650 c6         1 VYE       0.111800
      9 C9         176.1830   200.2360    96.8730 c          1 VYE       0.571000
     10 N10        176.9740   199.5930    95.8620 n          1 VYE      -0.236400
     11 C11        178.4130   199.9400    95.7160 c6         1 VYE       0.124000
     12 C12        179.0940   200.5830    97.0060 c6         1 VYE       0.215200
     13 O13        174.9750   200.0670    96.9250 o          1 VYE      -0.557000
     14 C14        180.4560   201.1750    96.5240 c3         1 VYE      -0.105600
     15 C15        179.4470   199.4210    97.9910 c3         1 VYE      -0.105600
     16 C16        176.4170   198.6760    94.9010 ca         1 VYE      -0.038000
     17 C17        176.7560   197.2990    94.9090 ca         1 VYE       0.129000
     18 C18        176.1160   196.4060    94.0320 ca         1 VYE      -0.102000
     19 C19        175.1040   196.8600    93.1720 ca         1 VYE      -0.098000
     20 C20        174.7110   198.2070    93.2090 ca         1 VYE      -0.105000
     21 C21        175.3470   199.1020    94.0860 ca         1 VYE      -0.093000
     22 Cl1        177.9430   196.6430    96.0390 cl         1 VYE      -0.201000
     23 C23        179.5840   202.5600   102.5290 c          1 VYE       0.596100
     24 O24        178.6130   202.2990   103.2240 o          1 VYE      -0.605100
     25 N25        180.8770   202.3940   102.9730 ns         1 VYE      -0.507900
     26 C26        181.2550   201.7830   104.2490 c3         1 VYE       0.113000
     27 C27        180.9900   200.2570   104.3200 c3         1 VYE      -0.096400
     28 C28        181.9210   199.3500   103.4610 c3         1 VYE      -0.062700
     29 C29        181.7360   197.8640   103.8470 c3         1 VYE      -0.088100
     30 C30        181.7380   199.5330   101.9340 c3         1 VYE      -0.088100
     31 H1         180.4660   203.2720   100.7450 hc         1 VYE       0.049700
     32 H2         179.2480   205.1840   101.6680 h1         1 VYE       0.063700
     33 H3         177.7000   204.3470   101.4340 h1         1 VYE       0.063700
     34 H4         179.6150   205.1350    99.3160 hn         1 VYE       0.400000
     35 H6         178.0100   204.3900    97.6890 h1         1 VYE       0.066700
     36 H7         176.9860   203.8010    99.0070 h1         1 VYE       0.066700
     37 H8         179.8200   202.8570    98.3780 h1         1 VYE       0.046700
     38 H9         177.8550   201.7460   100.4640 hc         1 VYE       0.064700
     39 H10        179.4720   201.1280   100.1690 hc         1 VYE       0.064700
     40 H12        176.1400   201.9730    98.1440 h1         1 VYE       0.067200
     41 H13        176.8740   200.5350    98.8740 h1         1 VYE       0.067200
     42 H14        178.9870   199.0660    95.3820 h1         1 VYE       0.049200
     43 H15        178.4750   200.6730    94.9000 h1         1 VYE       0.049200
     44 H16        181.1060   201.4610    97.3590 hc         1 VYE       0.044200
     45 H17        181.0170   200.4460    95.9270 hc         1 VYE       0.044200
     46 H18        180.3030   202.0620    95.8990 hc         1 VYE       0.044200
     47 H19        180.1770   199.7210    98.7470 hc         1 VYE       0.044200
     48 H20        178.5640   199.0240    98.5030 hc         1 VYE       0.044200
     49 H21        179.9080   198.5820    97.4570 hc         1 VYE       0.044200
     50 H22        176.3940   195.3550    94.0340 ha         1 VYE       0.131000
     51 H23        174.6080   196.1650    92.4970 ha         1 VYE       0.119000
     52 H24        173.9070   198.5570    92.5650 ha         1 VYE       0.121000
     53 H25        175.0230   200.1400    94.1150 ha         1 VYE       0.127000
     54 H26        181.6140   202.6480   102.3280 hn         1 VYE       0.308500
     55 H27        182.3190   201.9780   104.4330 h1         1 VYE       0.053700
     56 H28        180.6860   202.2800   105.0470 h1         1 VYE       0.053700
     57 H29        181.1060   199.9650   105.3710 hc         1 VYE       0.053200
     58 H30        179.9430   200.0520   104.0670 hc         1 VYE       0.053200
     59 H31        182.9590   199.6150   103.7020 hc         1 VYE       0.044700
     60 H32        181.9270   197.7120   104.9160 hc         1 VYE       0.032200
     61 H33        180.7140   197.5290   103.6300 hc         1 VYE       0.032200
     62 H34        182.4320   197.2270   103.2880 hc         1 VYE       0.032200
     63 H35        182.0810   200.5190   101.6040 hc         1 VYE       0.032200
     64 H36        182.3260   198.7890   101.3820 hc         1 VYE       0.032200
     65 H37        180.6860   199.4130   101.6490 hc         1 VYE       0.032200
@<TRIPOS>BOND
     1     1     2 1   
     2     1     6 1   
     3     1    23 1   
     4     1    31 1   
     5     2     3 1   
     6     2    32 1   
     7     2    33 1   
     8     3     4 1   
     9     3    34 1   
    10     4     5 1   
    11     4    35 1   
    12     4    36 1   
    13     5     6 1   
    14     5     7 1   
    15     5    37 1   
    16     6    38 1   
    17     6    39 1   
    18     7     8 1   
    19     7    12 1   
    20     8     9 1   
    21     8    40 1   
    22     8    41 1   
    23     9    10 1   
    24     9    13 2   
    25    10    11 1   
    26    10    16 1   
    27    11    12 1   
    28    11    42 1   
    29    11    43 1   
    30    12    14 1   
    31    12    15 1   
    32    14    44 1   
    33    14    45 1   
    34    14    46 1   
    35    15    47 1   
    36    15    48 1   
    37    15    49 1   
    38    16    17 ar  
    39    16    21 ar  
    40    17    18 ar  
    41    17    22 1   
    42    18    19 ar  
    43    18    50 1   
    44    19    20 ar  
    45    19    51 1   
    46    20    21 ar  
    47    20    52 1   
    48    21    53 1   
    49    23    24 2   
    50    23    25 1   
    51    25    26 1   
    52    25    54 1   
    53    26    27 1   
    54    26    55 1   
    55    26    56 1   
    56    27    28 1   
    57    27    57 1   
    58    27    58 1   
    59    28    29 1   
    60    28    30 1   
    61    28    59 1   
    62    29    60 1   
    63    29    61 1   
    64    29    62 1   
    65    30    63 1   
    66    30    64 1   
    67    30    65 1   
@<TRIPOS>SUBSTRUCTURE
     1 VYE         1 TEMP              0 ****  ****    0 ROOT
