@<TRIPOS>MOLECULE
VYF
   77    79     1     0     0
SMALL
No Charge or Current Charge


@<TRIPOS>ATOM
      1 C1         178.7650   202.8990   101.0980 c6         1 VYF      -0.176700
      2 C2         177.8540   204.1460   101.0830 c6         1 VYF       0.138800
      3 N3         177.7990   204.7370    99.7250 n7         1 VYF      -0.819400
      4 C4         177.3800   203.7510    98.6850 c6         1 VYF       0.147800
      5 C5         178.3470   202.5230    98.6040 c6         1 VYF       0.121500
      6 C6         178.4100   201.8490   100.0100 c6         1 VYF      -0.081400
      7 N7         177.9740   201.6100    97.4600 n3         1 VYF      -0.676600
      8 C8         176.7000   200.8530    97.6710 c6         1 VYF       0.066800
      9 C9         176.2700   199.9590    96.4530 c          1 VYF       0.574000
     10 N10        177.2690   199.3370    95.6350 n          1 VYF      -0.240400
     11 C11        178.5490   200.0630    95.4710 c6         1 VYF       0.125000
     12 C12        179.0670   200.7410    96.8170 c6         1 VYF       0.175200
     13 O13        175.0790   199.7890    96.2380 o          1 VYF      -0.548000
     14 C14        179.5950   199.6040    97.7510 c3         1 VYF      -0.105100
     15 C15        180.3070   201.6000    96.4190 c3         1 VYF      -0.105100
     16 C16        176.9740   198.2780    94.7010 ca         1 VYF      -0.033000
     17 C17        176.2720   197.1160    95.1120 ca         1 VYF       0.130000
     18 C18        175.8310   196.1770    94.1640 ca         1 VYF      -0.099000
     19 C19        176.0290   196.4080    92.7930 ca         1 VYF      -0.103000
     20 C20        176.6580   197.5880    92.3710 ca         1 VYF      -0.103000
     21 C21        177.1050   198.5270    93.3170 ca         1 VYF      -0.097000
     22 Cl1        176.0350   196.7450    96.8230 cl         1 VYF      -0.199000
     23 C23        178.8960   202.2850   102.5000 c          1 VYF       0.599100
     24 O24        177.9370   201.8180   103.0980 o          1 VYF      -0.616100
     25 N25        180.1650   202.2890   103.0310 ns         1 VYF      -0.514900
     26 C26        180.5400   201.6920   104.3120 c3         1 VYF       0.118700
     27 C27        180.6830   200.1440   104.1870 c3         1 VYF      -0.089900
     28 C28        181.7830   202.3930   104.9380 c3         1 VYF      -0.089900
     29 C29        181.6200   203.8820   105.3710 c3         1 VYF      -0.062200
     30 C30        180.5070   204.0850   106.4250 c3         1 VYF      -0.090350
     31 C31        181.4730   204.8760   104.1940 c3         1 VYF      -0.090350
     32 C32        181.3420   199.5590   102.8970 c3         1 VYF      -0.062200
     33 C33        182.7830   200.0570   102.6420 c3         1 VYF      -0.090350
     34 C34        181.3000   198.0140   102.9240 c3         1 VYF      -0.090350
     35 H1         179.7710   203.2590   100.8420 hc         1 VYF       0.059700
     36 H2         178.2280   204.8930   101.8010 h1         1 VYF       0.061200
     37 H3         176.8390   203.8620   101.4010 h1         1 VYF       0.061200
     38 H4         178.7360   205.0800    99.4810 hn         1 VYF       0.390000
     39 H6         177.3530   204.2480    97.7030 h1         1 VYF       0.069200
     40 H7         176.3590   203.4080    98.9030 h1         1 VYF       0.069200
     41 H8         179.3380   202.9520    98.4110 h1         1 VYF       0.032700
     42 H9         177.4420   201.3970   100.2630 hc         1 VYF       0.064200
     43 H10        179.1490   201.0440   100.0420 hc         1 VYF       0.064200
     44 H12        175.8590   201.5290    97.8750 h1         1 VYF       0.076700
     45 H13        176.7860   200.1600    98.5180 h1         1 VYF       0.076700
     46 H14        179.3120   199.3760    95.0770 h1         1 VYF       0.045200
     47 H15        178.3980   200.8490    94.7180 h1         1 VYF       0.045200
     48 H16        180.2490   199.9860    98.5400 hc         1 VYF       0.043867
     49 H17        178.7820   199.0400    98.2210 hc         1 VYF       0.043867
     50 H18        180.1990   198.8820    97.1880 hc         1 VYF       0.043867
     51 H19        180.8700   201.9530    97.2910 hc         1 VYF       0.043867
     52 H20        181.0110   201.0240    95.8060 hc         1 VYF       0.043867
     53 H21        180.0080   202.4800    95.8360 hc         1 VYF       0.043867
     54 H22        175.3310   195.2700    94.4940 ha         1 VYF       0.131000
     55 H23        175.6820   195.6810    92.0610 ha         1 VYF       0.118000
     56 H24        176.7870   197.7850    91.3080 ha         1 VYF       0.118000
     57 H25        177.5520   199.4540    92.9640 ha         1 VYF       0.131000
     58 H26        180.8950   202.7000   102.4630 hn         1 VYF       0.312500
     59 H27        179.7090   201.8590   105.0110 h1         1 VYF       0.085700
     60 H28        179.6710   199.7270   104.2510 hc         1 VYF       0.050950
     61 H29        181.2100   199.7600   105.0700 hc         1 VYF       0.050950
     62 H30        182.0780   201.8250   105.8290 hc         1 VYF       0.050950
     63 H31        182.6340   202.3270   104.2530 hc         1 VYF       0.050950
     64 H32        182.5630   204.1470   105.8690 hc         1 VYF       0.044200
     65 H33        180.6340   203.3910   107.2640 hc         1 VYF       0.035117
     66 H34        180.5380   205.1060   106.8240 hc         1 VYF       0.035117
     67 H35        179.5140   203.9240   105.9890 hc         1 VYF       0.035117
     68 H36        182.2300   204.6850   103.4240 hc         1 VYF       0.035117
     69 H37        180.4810   204.8130   103.7340 hc         1 VYF       0.035117
     70 H38        181.6070   205.9060   104.5480 hc         1 VYF       0.035117
     71 H39        180.7350   199.8680   102.0360 hc         1 VYF       0.044200
     72 H40        182.7900   201.1180   102.3700 hc         1 VYF       0.035117
     73 H41        183.4120   199.9130   103.5290 hc         1 VYF       0.035117
     74 H42        183.2400   199.5100   101.8080 hc         1 VYF       0.035117
     75 H43        180.2710   197.6550   103.0440 hc         1 VYF       0.035117
     76 H44        181.6930   197.5980   101.9880 hc         1 VYF       0.035117
     77 H45        181.9010   197.6210   103.7530 hc         1 VYF       0.035117
@<TRIPOS>BOND
     1     1     2 1   
     2     1     6 1   
     3     1    23 1   
     4     1    35 1   
     5     2     3 1   
     6     2    36 1   
     7     2    37 1   
     8     3     4 1   
     9     3    38 1   
    10     4     5 1   
    11     4    39 1   
    12     4    40 1   
    13     5     6 1   
    14     5     7 1   
    15     5    41 1   
    16     6    42 1   
    17     6    43 1   
    18     7     8 1   
    19     7    12 1   
    20     8     9 1   
    21     8    44 1   
    22     8    45 1   
    23     9    10 1   
    24     9    13 2   
    25    10    11 1   
    26    10    16 1   
    27    11    12 1   
    28    11    46 1   
    29    11    47 1   
    30    12    14 1   
    31    12    15 1   
    32    14    48 1   
    33    14    49 1   
    34    14    50 1   
    35    15    51 1   
    36    15    52 1   
    37    15    53 1   
    38    16    17 ar  
    39    16    21 ar  
    40    17    18 ar  
    41    17    22 1   
    42    18    19 ar  
    43    18    54 1   
    44    19    20 ar  
    45    19    55 1   
    46    20    21 ar  
    47    20    56 1   
    48    21    57 1   
    49    23    24 2   
    50    23    25 1   
    51    25    26 1   
    52    25    58 1   
    53    26    27 1   
    54    26    28 1   
    55    26    59 1   
    56    27    32 1   
    57    27    60 1   
    58    27    61 1   
    59    28    29 1   
    60    28    62 1   
    61    28    63 1   
    62    29    30 1   
    63    29    31 1   
    64    29    64 1   
    65    30    65 1   
    66    30    66 1   
    67    30    67 1   
    68    31    68 1   
    69    31    69 1   
    70    31    70 1   
    71    32    33 1   
    72    32    34 1   
    73    32    71 1   
    74    33    72 1   
    75    33    73 1   
    76    33    74 1   
    77    34    75 1   
    78    34    76 1   
    79    34    77 1   
@<TRIPOS>SUBSTRUCTURE
     1 VYF         1 TEMP              0 ****  ****    0 ROOT
