@<TRIPOS>MOLECULE
VYF
   77    79     1     0     0
SMALL
abcg2


@<TRIPOS>ATOM
      1 C1         179.9050   201.9990   100.6860 c6         1 VYF      -0.176700
      2 C2         179.4040   203.4460   100.5080 c6         1 VYF       0.138800
      3 N3         179.4850   203.9230    99.1230 n7         1 VYF      -0.819400
      4 C4         178.6680   203.0920    98.2270 c6         1 VYF       0.147800
      5 C5         179.0320   201.5880    98.3160 c6         1 VYF       0.121500
      6 C6         179.1140   201.0590    99.7480 c6         1 VYF      -0.081400
      7 N7         178.2550   200.8450    97.2870 n3         1 VYF      -0.676600
      8 C8         177.1200   200.1430    97.9320 c6         1 VYF       0.066800
      9 C9         176.1210   199.6710    96.9120 c          1 VYF       0.574000
     10 N10        176.6460   199.2370    95.7410 n          1 VYF      -0.240400
     11 C11        178.0870   199.2000    95.4600 c6         1 VYF       0.125000
     12 C12        179.0270   199.8480    96.4890 c6         1 VYF       0.175200
     13 O13        174.9060   199.7630    97.0910 o          1 VYF      -0.548000
     14 C14        179.6710   198.7150    97.3470 c3         1 VYF      -0.105100
     15 C15        180.1610   200.5090    95.7050 c3         1 VYF      -0.105100
     16 C16        175.7570   198.9300    94.6710 ca         1 VYF      -0.033000
     17 C17        175.2340   197.6490    94.5290 ca         1 VYF       0.130000
     18 C18        174.4460   197.3110    93.4250 ca         1 VYF      -0.099000
     19 C19        174.1230   198.2980    92.5070 ca         1 VYF      -0.103000
     20 C20        174.5260   199.6170    92.7180 ca         1 VYF      -0.103000
     21 C21        175.4310   199.9060    93.7310 ca         1 VYF      -0.097000
     22 CL1        175.6850   196.3890    95.6450 cl         1 VYF      -0.199000
     23 C23        179.6610   201.6040   102.1460 c          1 VYF       0.599100
     24 O24        178.7090   200.8990   102.4950 o          1 VYF      -0.616100
     25 N25        180.5440   202.1110   103.0170 ns         1 VYF      -0.514900
     26 C26        180.4840   201.8150   104.4880 c3         1 VYF       0.118700
     27 C27        181.2040   200.4820   104.7600 c3         1 VYF      -0.089900
     28 C28        181.0110   203.0440   105.2230 c3         1 VYF      -0.089900
     29 C29        180.1180   204.3290   105.2420 c3         1 VYF      -0.062200
     30 C30        178.6280   204.0270   105.0520 c3         1 VYF      -0.090350
     31 C31        180.6170   205.3080   104.1650 c3         1 VYF      -0.090350
     32 C32        182.5800   200.2510   104.0910 c3         1 VYF      -0.062200
     33 C33        183.7180   201.1420   104.5660 c3         1 VYF      -0.090350
     34 C34        182.9660   198.7670   104.2780 c3         1 VYF      -0.090350
     35 H1         180.9650   201.9550   100.4350 hc         1 VYF       0.059700
     36 H2         180.1110   204.1010   101.0410 h1         1 VYF       0.061200
     37 H3         178.4220   203.6350   100.9430 h1         1 VYF       0.061200
     38 H4         180.4540   203.7990    98.8330 hn         1 VYF       0.390000
     39 H6         178.8020   203.4360    97.2050 h1         1 VYF       0.069200
     40 H7         177.6310   203.1740    98.5720 h1         1 VYF       0.069200
     41 H8         180.0590   201.6000    97.9350 h1         1 VYF       0.032700
     42 H9         178.1140   200.8930   100.1400 hc         1 VYF       0.064200
     43 H10        179.6660   200.1170    99.7680 hc         1 VYF       0.064200
     44 H12        176.6020   200.8750    98.5470 h1         1 VYF       0.076700
     45 H13        177.4380   199.2810    98.5240 h1         1 VYF       0.076700
     46 H14        178.3720   198.1530    95.3110 h1         1 VYF       0.045200
     47 H15        178.1990   199.6410    94.4660 h1         1 VYF       0.045200
     48 H16        180.3930   199.1610    98.0330 hc         1 VYF       0.043867
     49 H17        178.9450   198.1260    97.9000 hc         1 VYF       0.043867
     50 H18        180.2530   198.0670    96.6900 hc         1 VYF       0.043867
     51 H19        180.8540   201.0250    96.3690 hc         1 VYF       0.043867
     52 H20        180.6960   199.7860    95.0920 hc         1 VYF       0.043867
     53 H21        179.7640   201.2760    95.0300 hc         1 VYF       0.043867
     54 H22        174.2150   196.2670    93.2700 ha         1 VYF       0.131000
     55 H23        173.5180   198.0520    91.6430 ha         1 VYF       0.118000
     56 H24        174.3200   200.3400    91.9390 ha         1 VYF       0.118000
     57 H25        175.7130   200.9390    93.8920 ha         1 VYF       0.131000
     58 H26        181.3050   202.6950   102.7060 hn         1 VYF       0.312500
     59 H27        179.4190   201.7100   104.6650 h1         1 VYF       0.085700
     60 H28        180.5430   199.7060   104.3770 hc         1 VYF       0.050950
     61 H29        181.3990   200.4390   105.8360 hc         1 VYF       0.050950
     62 H30        181.0550   202.7180   106.2770 hc         1 VYF       0.050950
     63 H31        182.0480   203.2740   104.9980 hc         1 VYF       0.050950
     64 H32        180.2960   204.7520   106.2330 hc         1 VYF       0.044200
     65 H33        178.2600   203.3680   105.8360 hc         1 VYF       0.035117
     66 H34        178.0980   204.9830   105.1580 hc         1 VYF       0.035117
     67 H35        178.4370   203.6840   104.0370 hc         1 VYF       0.035117
     68 H36        181.6680   205.5560   104.3070 hc         1 VYF       0.035117
     69 H37        180.3020   205.0240   103.1640 hc         1 VYF       0.035117
     70 H38        180.1020   206.2760   104.3290 hc         1 VYF       0.035117
     71 H39        182.4610   200.3620   103.0100 hc         1 VYF       0.044200
     72 H40        183.5270   202.2020   104.4110 hc         1 VYF       0.035117
     73 H41        184.0060   200.9660   105.6030 hc         1 VYF       0.035117
     74 H42        184.5950   200.9640   103.9220 hc         1 VYF       0.035117
     75 H43        182.1150   198.1410   103.9910 hc         1 VYF       0.035117
     76 H44        183.8000   198.4900   103.6330 hc         1 VYF       0.035117
     77 H45        183.1570   198.5320   105.3280 hc         1 VYF       0.035117
@<TRIPOS>BOND
     1     1     2 1   
     2     1     6 1   
     3     1    23 1   
     4     1    35 1   
     5     2     3 1   
     6     2    36 1   
     7     2    37 1   
     8     3     4 1   
     9     3    38 1   
    10     4     5 1   
    11     4    39 1   
    12     4    40 1   
    13     5     6 1   
    14     5     7 1   
    15     5    41 1   
    16     6    42 1   
    17     6    43 1   
    18     7     8 1   
    19     7    12 1   
    20     8     9 1   
    21     8    44 1   
    22     8    45 1   
    23     9    10 1   
    24     9    13 2   
    25    10    11 1   
    26    10    16 1   
    27    11    12 1   
    28    11    46 1   
    29    11    47 1   
    30    12    14 1   
    31    12    15 1   
    32    14    48 1   
    33    14    49 1   
    34    14    50 1   
    35    15    51 1   
    36    15    52 1   
    37    15    53 1   
    38    16    17 ar  
    39    16    21 ar  
    40    17    18 ar  
    41    17    22 1   
    42    18    19 ar  
    43    18    54 1   
    44    19    20 ar  
    45    19    55 1   
    46    20    21 ar  
    47    20    56 1   
    48    21    57 1   
    49    23    24 2   
    50    23    25 1   
    51    25    26 1   
    52    25    58 1   
    53    26    27 1   
    54    26    28 1   
    55    26    59 1   
    56    27    32 1   
    57    27    60 1   
    58    27    61 1   
    59    28    29 1   
    60    28    62 1   
    61    28    63 1   
    62    29    30 1   
    63    29    31 1   
    64    29    64 1   
    65    30    65 1   
    66    30    66 1   
    67    30    67 1   
    68    31    68 1   
    69    31    69 1   
    70    31    70 1   
    71    32    33 1   
    72    32    34 1   
    73    32    71 1   
    74    33    72 1   
    75    33    73 1   
    76    33    74 1   
    77    34    75 1   
    78    34    76 1   
    79    34    77 1   
@<TRIPOS>SUBSTRUCTURE
     1 VYF         1 TEMP              0 ****  ****    0 ROOT
