@<TRIPOS>MOLECULE
VYG
   58    60     1     0     0
SMALL
abcg2


@<TRIPOS>ATOM
      1 C1          -1.8850    -0.6770    15.9160 c3         1 VYG      -0.132700
      2 C2          -1.4840    -0.3460    14.5090 ca         1 VYG       0.186300
      3 C3          -1.6390     1.0980    12.7600 ca         1 VYG       0.401900
      4 C4          -0.3530    -0.7460    12.4530 ca         1 VYG       0.397900
      5 C5          -0.6680    -1.1670    13.7640 ca         1 VYG      -0.130900
      6 C6          -0.9770    -3.4780    13.9810 c3         1 VYG       0.150600
      7 C7          -0.3120    -4.7060    14.5640 c3         1 VYG      -0.079400
      8 N1          -2.1120     2.2690    12.2570 nv         1 VYG      -1.046900
      9 C8          -0.1160    -4.6880    16.0660 c3         1 VYG       0.172600
     10 C9          -1.4880    -4.7210    18.0040 ca         1 VYG       0.586300
     11 C10         -0.4880    -4.9930    20.0370 ca         1 VYG       0.361900
     12 C11         -1.6900    -4.9450    20.7010 ca         1 VYG      -0.184000
     13 N2          -0.8440     0.3850    11.9610 nb         1 VYG      -0.324000
     14 C12         -2.8530    -4.7870    19.9460 ca         1 VYG      -0.104000
     15 C13         -2.7890    -4.6650    18.5680 ca         1 VYG       0.198000
     16 C14         -5.0770    -3.8960    18.4120 c6         1 VYG       0.192800
     17 C15         -6.0530    -3.3320    17.3940 c6         1 VYG      -0.076900
     18 C16         -6.4430    -4.3930    16.3660 c6         1 VYG      -0.130700
     19 C17         -7.3730    -3.8210    15.3230 c3         1 VYG       0.300000
     20 C18         -5.1900    -5.0090    15.7450 c6         1 VYG      -0.076900
     21 C19         -4.2610    -5.5160    16.8360 c6         1 VYG       0.192800
     22 O1          -1.3990    -4.5930    16.6770 os         1 VYG      -0.461300
     23 N3           0.4340    -1.4970    11.6560 nv         1 VYG      -1.064900
     24 N           -1.9740     0.7960    14.0090 nb         1 VYG      -0.279000
     25 C           -3.3680    -1.0160    16.0280 c3         1 VYG      -0.080100
     26 O           -0.1540    -2.3410    14.2380 os         1 VYG      -0.349100
     27 F           -7.8090    -4.7480    14.4560 f          1 VYG      -0.118000
     28 F1          -6.7930    -2.8570    14.5890 f          1 VYG      -0.118000
     29 F2          -8.4640    -3.2680    15.8750 f          1 VYG      -0.118000
     30 N4          -0.3970    -4.8830    18.7090 nb         1 VYG      -0.751000
     31 N5          -3.9040    -4.4390    17.7530 nh         1 VYG      -0.761400
     32 H1          -1.2880    -1.5020    16.3030 hc         1 VYG       0.063700
     33 H2          -1.6680     0.1920    16.5410 hc         1 VYG       0.063700
     34 H3          -1.1090    -3.6130    12.9020 h1         1 VYG       0.038700
     35 H4          -1.9720    -3.3280    14.4130 h1         1 VYG       0.038700
     36 H5          -0.9090    -5.5780    14.2830 hc         1 VYG       0.054200
     37 H6           0.6690    -4.8470    14.1040 hc         1 VYG       0.054200
     38 H7          -2.0940     2.3830    11.2580 hn         1 VYG       0.483000
     39 H8          -2.9000     2.6820    12.7260 hn         1 VYG       0.483000
     40 H9           0.3870    -5.6050    16.3820 h1         1 VYG       0.054700
     41 H10          0.5120    -3.8490    16.3780 h1         1 VYG       0.054700
     42 H11          0.4460    -5.1110    20.5750 h4         1 VYG       0.021100
     43 H12         -1.7360    -5.0340    21.7770 ha         1 VYG       0.126000
     44 H13         -3.8100    -4.7570    20.4510 ha         1 VYG       0.119000
     45 H14         -4.7700    -3.0940    19.0850 h1         1 VYG       0.041450
     46 H15         -5.5910    -4.6540    19.0240 h1         1 VYG       0.041450
     47 H16         -5.5920    -2.4780    16.8960 hc         1 VYG       0.065200
     48 H17         -6.9300    -2.9660    17.9300 hc         1 VYG       0.065200
     49 H18         -6.9990    -5.1870    16.8790 hc         1 VYG       0.077700
     50 H19         -5.4470    -5.8430    15.0910 hc         1 VYG       0.065200
     51 H20         -4.6550    -4.2700    15.1430 hc         1 VYG       0.065200
     52 H21         -4.7480    -6.3370    17.3850 h1         1 VYG       0.041450
     53 H22         -3.3650    -5.9270    16.3780 h1         1 VYG       0.041450
     54 H23          0.7780    -1.0790    10.8080 hn         1 VYG       0.489500
     55 H24          1.0090    -2.2130    12.0650 hn         1 VYG       0.489500
     56 H25         -3.6330    -1.2190    17.0650 hc         1 VYG       0.036700
     57 H26         -3.9900    -0.1950    15.6740 hc         1 VYG       0.036700
     58 H27         -3.6200    -1.9030    15.4450 hc         1 VYG       0.036700
@<TRIPOS>BOND
     1     1     2 1   
     2     1    25 1   
     3     1    32 1   
     4     1    33 1   
     5     2     5 ar  
     6     2    24 ar  
     7     3     8 1   
     8     3    13 ar  
     9     3    24 ar  
    10     4     5 ar  
    11     4    13 ar  
    12     4    23 1   
    13     5    26 1   
    14     6     7 1   
    15     6    26 1   
    16     6    34 1   
    17     6    35 1   
    18     7     9 1   
    19     7    36 1   
    20     7    37 1   
    21     8    38 1   
    22     8    39 1   
    23     9    22 1   
    24     9    40 1   
    25     9    41 1   
    26    10    15 ar  
    27    10    22 1   
    28    10    30 ar  
    29    11    12 ar  
    30    11    30 ar  
    31    11    42 1   
    32    12    14 ar  
    33    12    43 1   
    34    14    15 ar  
    35    14    44 1   
    36    15    31 1   
    37    16    17 1   
    38    16    31 1   
    39    16    45 1   
    40    16    46 1   
    41    17    18 1   
    42    17    47 1   
    43    17    48 1   
    44    18    19 1   
    45    18    20 1   
    46    18    49 1   
    47    19    27 1   
    48    19    28 1   
    49    19    29 1   
    50    20    21 1   
    51    20    50 1   
    52    20    51 1   
    53    21    31 1   
    54    21    52 1   
    55    21    53 1   
    56    23    54 1   
    57    23    55 1   
    58    25    56 1   
    59    25    57 1   
    60    25    58 1   
@<TRIPOS>SUBSTRUCTURE
     1 VYG         1 TEMP              0 ****  ****    0 ROOT
