@<TRIPOS>MOLECULE
VYG
   58    60     1     0     0
SMALL
No Charge or Current Charge


@<TRIPOS>ATOM
      1 C1          -1.1090    -0.6860    16.3150 c3         1 VYG      -0.132700
      2 C2          -1.3210    -0.3990    14.8320 ca         1 VYG       0.186300
      3 C3          -2.0780     1.0360    13.2210 ca         1 VYG       0.401900
      4 C4          -1.2310    -0.9310    12.4870 ca         1 VYG       0.397900
      5 C5          -0.9760    -1.3250    13.8210 ca         1 VYG      -0.130900
      6 C6          -1.1430    -3.7590    13.9330 c3         1 VYG       0.150600
      7 C7          -0.3300    -4.9260    14.5310 c3         1 VYG      -0.079400
      8 N1          -2.6410     2.2270    12.9170 nv         1 VYG      -1.046900
      9 C8          -0.1150    -4.8230    16.0550 c3         1 VYG       0.172600
     10 C9          -1.5560    -4.7070    18.0510 ca         1 VYG       0.586300
     11 C10         -0.5750    -4.5250    20.1480 ca         1 VYG       0.361900
     12 C11         -1.8220    -4.3430    20.7640 ca         1 VYG      -0.184000
     13 N2          -1.7820     0.2480    12.1820 nb         1 VYG      -0.324000
     14 C12         -2.9890    -4.3470    19.9820 ca         1 VYG      -0.104000
     15 C13         -2.8810    -4.5360    18.5900 ca         1 VYG       0.198000
     16 C14         -5.2080    -3.6150    18.0700 c6         1 VYG       0.192800
     17 C15         -5.8290    -3.0970    16.7490 c6         1 VYG      -0.076900
     18 C16         -6.2320    -4.2640    15.7970 c6         1 VYG      -0.130700
     19 C17         -6.8460    -3.7560    14.4540 c3         1 VYG       0.300000
     20 C18         -5.0040    -5.1980    15.5770 c6         1 VYG      -0.076900
     21 C19         -4.4140    -5.6870    16.9200 c6         1 VYG       0.192800
     22 O1          -1.4060    -4.8690    16.6850 os         1 VYG      -0.461300
     23 N3          -0.8950    -1.6930    11.4100 nv         1 VYG      -1.064900
     24 N           -1.8820     0.7890    14.5240 nb         1 VYG      -0.279000
     25 C           -2.3370    -1.3510    16.9660 c3         1 VYG      -0.080100
     26 O           -0.4040    -2.5430    14.1460 os         1 VYG      -0.349100
     27 F           -7.2370    -4.7840    13.6670 f          1 VYG      -0.118000
     28 F1          -5.9650    -3.0170    13.7420 f          1 VYG      -0.118000
     29 F2          -7.9370    -2.9860    14.6670 f          1 VYG      -0.118000
     30 N4          -0.4320    -4.7040    18.8180 nb         1 VYG      -0.751000
     31 N5          -4.0720    -4.5330    17.7910 nh         1 VYG      -0.761400
     32 H1          -0.2360    -1.3340    16.4560 hc         1 VYG       0.063700
     33 H2          -0.8820     0.2430    16.8530 hc         1 VYG       0.063700
     34 H3          -1.3060    -3.9410    12.8640 h1         1 VYG       0.038700
     35 H4          -2.1250    -3.7030    14.4210 h1         1 VYG       0.038700
     36 H5          -0.8420    -5.8690    14.3060 hc         1 VYG       0.054200
     37 H6           0.6460    -4.9730    14.0340 hc         1 VYG       0.054200
     38 H7          -3.0020     2.3630    11.9770 hn         1 VYG       0.483000
     39 H8          -3.0790     2.7630    13.6620 hn         1 VYG       0.483000
     40 H9           0.5130    -5.6590    16.3920 h1         1 VYG       0.054700
     41 H10          0.4050    -3.8840    16.2910 h1         1 VYG       0.054700
     42 H11          0.3400    -4.5270    20.7390 h4         1 VYG       0.021100
     43 H12         -1.8770    -4.2040    21.8400 ha         1 VYG       0.126000
     44 H13         -3.9600    -4.2180    20.4530 ha         1 VYG       0.119000
     45 H14         -4.8680    -2.7510    18.6600 h1         1 VYG       0.041450
     46 H15         -5.9760    -4.1370    18.6590 h1         1 VYG       0.041450
     47 H16         -5.1050    -2.4410    16.2470 hc         1 VYG       0.065200
     48 H17         -6.7020    -2.4740    16.9830 hc         1 VYG       0.065200
     49 H18         -7.0240    -4.8480    16.2880 hc         1 VYG       0.077700
     50 H19         -5.2880    -6.0690    14.9700 hc         1 VYG       0.065200
     51 H20         -4.2230    -4.6680    15.0160 hc         1 VYG       0.065200
     52 H21         -5.1480    -6.3310    17.4280 h1         1 VYG       0.041450
     53 H22         -3.5280    -6.3070    16.7190 h1         1 VYG       0.041450
     54 H23         -0.8780    -1.2430    10.4990 hn         1 VYG       0.489500
     55 H24         -0.2260    -2.4430    11.5570 hn         1 VYG       0.489500
     56 H25         -2.1410    -1.5750    18.0210 hc         1 VYG       0.036700
     57 H26         -3.2110    -0.6920    16.9100 hc         1 VYG       0.036700
     58 H27         -2.5810    -2.2890    16.4540 hc         1 VYG       0.036700
@<TRIPOS>BOND
     1     1     2 1   
     2     1    25 1   
     3     1    32 1   
     4     1    33 1   
     5     2     5 ar  
     6     2    24 ar  
     7     3     8 1   
     8     3    13 ar  
     9     3    24 ar  
    10     4     5 ar  
    11     4    13 ar  
    12     4    23 1   
    13     5    26 1   
    14     6     7 1   
    15     6    26 1   
    16     6    34 1   
    17     6    35 1   
    18     7     9 1   
    19     7    36 1   
    20     7    37 1   
    21     8    38 1   
    22     8    39 1   
    23     9    22 1   
    24     9    40 1   
    25     9    41 1   
    26    10    15 ar  
    27    10    22 1   
    28    10    30 ar  
    29    11    12 ar  
    30    11    30 ar  
    31    11    42 1   
    32    12    14 ar  
    33    12    43 1   
    34    14    15 ar  
    35    14    44 1   
    36    15    31 1   
    37    16    17 1   
    38    16    31 1   
    39    16    45 1   
    40    16    46 1   
    41    17    18 1   
    42    17    47 1   
    43    17    48 1   
    44    18    19 1   
    45    18    20 1   
    46    18    49 1   
    47    19    27 1   
    48    19    28 1   
    49    19    29 1   
    50    20    21 1   
    51    20    50 1   
    52    20    51 1   
    53    21    31 1   
    54    21    52 1   
    55    21    53 1   
    56    23    54 1   
    57    23    55 1   
    58    25    56 1   
    59    25    57 1   
    60    25    58 1   
@<TRIPOS>SUBSTRUCTURE
     1 VYG         1 TEMP              0 ****  ****    0 ROOT
