@<TRIPOS>MOLECULE
VYH
   76    80     1     0     0
SMALL
abcg2


@<TRIPOS>ATOM
      1 N1         -34.6220    -2.5610    20.3170 nu         1 VYH      -0.828100
      2 C4         -29.3370    -7.6400     9.8860 ca         1 VYH      -0.151000
      3 C5         -29.8780    -6.3700     9.9460 cp         1 VYH       0.394500
      4 C6         -30.5080    -5.8440    11.1950 cp         1 VYH      -0.125500
      5 C7         -29.8740    -4.8450    11.9230 ca         1 VYH      -0.076000
      6 C8         -30.4910    -4.3670    13.0810 ca         1 VYH      -0.085000
      7 C10        -32.3400    -4.2880    14.7430 cc         1 VYH      -0.157400
      8 C13        -33.3090    -5.0560    18.2460 ca         1 VYH       0.191900
      9 C15        -35.0370    -1.1720    20.2770 c3         1 VYH       0.171800
     10 N          -33.9370    -4.5070    19.2680 nb         1 VYH      -0.226000
     11 C11        -32.5730    -5.0160    15.8620 cd         1 VYH      -0.023200
     12 C1         -29.1240    -5.8530     7.8190 ca         1 VYH       0.361300
     13 C18        -38.0480     2.1910    22.2190 c6         1 VYH       0.124300
     14 C2         -28.5880    -7.1520     7.6560 ca         1 VYH      -0.161000
     15 C16        -35.9860    -0.8720    21.4540 c3         1 VYH      -0.102400
     16 C9         -31.7020    -4.8770    13.5400 ca         1 VYH      -0.020800
     17 C12        -33.0190    -4.3910    17.0500 ca         1 VYH      -0.285800
     18 C14        -34.1610    -3.1730    19.1680 ca         1 VYH       0.366900
     19 C          -29.1270    -4.8960     6.6750 c3         1 VYH      -0.153400
     20 O          -38.5770     2.3880    24.5720 os         1 VYH      -0.448000
     21 C3         -28.7400    -8.0470     8.6900 ca         1 VYH      -0.072000
     22 C19        -39.1330     2.4620    23.2700 c6         1 VYH       0.152600
     23 C20        -38.0310     1.0930    24.7880 c6         1 VYH       0.152600
     24 C21        -36.9450     0.7770    23.8110 c6         1 VYH       0.124300
     25 C22        -33.4250    -3.0350    17.0180 ca         1 VYH       0.300900
     26 C24        -32.4650    -0.0510    16.5380 c3         1 VYH      -0.090400
     27 C25        -31.2390     0.1380    15.6110 c3         1 VYH      -0.092400
     28 C26        -30.0770     0.8830    16.2570 c3         1 VYH       0.151800
     29 C27        -32.6770    -2.8710    14.6880 c          1 VYH       0.575200
     30 C28        -32.3010    -5.8830    12.7800 ca         1 VYH       0.140000
     31 C29        -31.7430    -6.3540    11.6040 ca         1 VYH      -0.087000
     32 N2         -37.4670     0.8690    22.4490 n3         1 VYH      -0.727600
     33 N3         -33.9540    -2.4280    18.0840 nb         1 VYH      -0.290000
     34 N4         -33.2180    -2.3100    15.8830 n          1 VYH      -0.376300
     35 N5         -28.9680     0.9730    15.2950 n8         1 VYH      -1.005200
     36 N6         -29.6930    -5.4650     8.9570 nb         1 VYH      -0.666000
     37 CL         -33.9300    -6.4490    13.1680 cl         1 VYH      -0.220000
     38 H10        -35.3860    -3.1340    20.6710 hn         1 VYH       0.466000
     39 H6         -28.9360    -4.3960    11.6420 ha         1 VYH       0.131000
     40 H7         -29.9900    -3.5700    13.6350 ha         1 VYH       0.122000
     41 H9         -33.0690    -6.1200    18.3370 h4         1 VYH       0.028100
     42 H12        -34.1870    -0.4890    20.3700 h1         1 VYH       0.055700
     43 H11        -35.5760    -0.9150    19.3510 h1         1 VYH       0.055700
     44 H8         -32.2660    -6.0510    15.9320 ha         1 VYH       0.196000
     45 H18        -37.2850     2.9850    22.1960 h1         1 VYH       0.039950
     46 H17        -38.5210     2.1730    21.2330 h1         1 VYH       0.039950
     47 H3         -28.2090    -7.4170     6.6800 ha         1 VYH       0.125000
     48 H13        -36.8970    -1.4590    21.2540 hc         1 VYH       0.057700
     49 H14        -35.5160    -1.1680    22.3890 hc         1 VYH       0.057700
     50 H1         -29.5890    -3.9450     6.9490 hc         1 VYH       0.053700
     51 H          -28.0860    -4.6200     6.4050 hc         1 VYH       0.053700
     52 H2         -29.5890    -5.2860     5.7680 hc         1 VYH       0.053700
     53 H4         -28.3970    -9.0700     8.5630 ha         1 VYH       0.118000
     54 H20        -39.5690     3.4500    23.1270 h1         1 VYH       0.052450
     55 H19        -39.9000     1.6830    23.1220 h1         1 VYH       0.052450
     56 H22        -37.7400     1.0240    25.8410 h1         1 VYH       0.052450
     57 H21        -38.8190     0.3180    24.7220 h1         1 VYH       0.052450
     58 H24        -36.0510     1.4170    23.9320 h1         1 VYH       0.039950
     59 H23        -36.5570    -0.2380    23.9960 h1         1 VYH       0.039950
     60 H27        -32.8670     0.9750    16.6110 hc         1 VYH       0.057200
     61 H28        -32.1550    -0.4480    17.4950 hc         1 VYH       0.057200
     62 H30        -30.8480    -0.8600    15.3460 hc         1 VYH       0.049700
     63 H29        -31.5300     0.6220    14.6810 hc         1 VYH       0.049700
     64 H31        -30.3820     1.8950    16.5160 h1         1 VYH       0.028200
     65 H32        -29.7650     0.3460    17.1660 h1         1 VYH       0.028200
     66 H35        -32.1980    -7.1220    10.9990 ha         1 VYH       0.136000
     67 H33        -28.1650     1.4260    15.7260 hn         1 VYH       0.391500
     68 H34        -28.6600     0.0340    15.0520 hn         1 VYH       0.391500
     69 C23        -33.5430    -0.8660    15.8400 c3         1 VYH       0.098000
     70 C17        -36.4260     0.5890    21.4150 c3         1 VYH       0.166800
     71 O1         -32.6570    -2.2010    13.6610 o          1 VYH      -0.514000
     72 H5         -29.3660    -8.3120    10.7340 ha         1 VYH       0.128000
     73 H16        -35.5710     1.2150    21.7020 h1         1 VYH       0.044200
     74 H15        -36.8710     0.8280    20.4570 h1         1 VYH       0.044200
     75 H26        -33.7130    -0.5980    14.8050 h1         1 VYH       0.079700
     76 H25        -34.4640    -0.7780    16.4280 h1         1 VYH       0.079700
@<TRIPOS>BOND
     1     1     9 1   
     2     1    18 1   
     3     1    38 1   
     4     2     3 ar  
     5     2    21 ar  
     6     2    72 1   
     7     3     4 1   
     8     3    36 ar  
     9     4     5 ar  
    10     4    31 ar  
    11     5     6 ar  
    12     5    39 1   
    13     6    16 ar  
    14     6    40 1   
    15     7    11 2   
    16     7    16 1   
    17     7    29 1   
    18     8    10 ar  
    19     8    17 ar  
    20     8    41 1   
    21     9    15 1   
    22     9    42 1   
    23     9    43 1   
    24    10    18 ar  
    25    11    17 1   
    26    11    44 1   
    27    12    14 ar  
    28    12    19 1   
    29    12    36 ar  
    30    13    22 1   
    31    13    32 1   
    32    13    45 1   
    33    13    46 1   
    34    14    21 ar  
    35    14    47 1   
    36    15    48 1   
    37    15    49 1   
    38    15    70 1   
    39    16    30 ar  
    40    17    25 ar  
    41    18    33 ar  
    42    19    50 1   
    43    19    51 1   
    44    19    52 1   
    45    20    22 1   
    46    20    23 1   
    47    21    53 1   
    48    22    54 1   
    49    22    55 1   
    50    23    24 1   
    51    23    56 1   
    52    23    57 1   
    53    24    32 1   
    54    24    58 1   
    55    24    59 1   
    56    25    33 ar  
    57    25    34 1   
    58    26    27 1   
    59    26    60 1   
    60    26    61 1   
    61    26    69 1   
    62    27    28 1   
    63    27    62 1   
    64    27    63 1   
    65    28    35 1   
    66    28    64 1   
    67    28    65 1   
    68    29    34 1   
    69    29    71 2   
    70    30    31 ar  
    71    30    37 1   
    72    31    66 1   
    73    32    70 1   
    74    34    69 1   
    75    35    67 1   
    76    35    68 1   
    77    69    75 1   
    78    69    76 1   
    79    70    73 1   
    80    70    74 1   
@<TRIPOS>SUBSTRUCTURE
     1 VYH         1 TEMP              0 ****  ****    0 ROOT
