@<TRIPOS>MOLECULE
VYH
   76    80     1     0     0
SMALL
No Charge or Current Charge


@<TRIPOS>ATOM
      1 N1         -34.8070    -2.4940    19.9320 nu         1 VYH      -0.828100
      2 C4         -30.5410    -7.5020     8.9180 ca         1 VYH      -0.151000
      3 C5         -29.8610    -6.5810     9.7570 cp         1 VYH       0.394500
      4 C6         -30.5300    -5.9010    10.9240 cp         1 VYH      -0.125500
      5 C7         -29.7740    -5.3870    12.0140 ca         1 VYH      -0.076000
      6 C8         -30.3960    -4.7550    13.1030 ca         1 VYH      -0.085000
      7 C10        -32.4200    -3.9410    14.2810 cc         1 VYH      -0.157400
      8 C13        -33.1360    -4.8130    17.8520 ca         1 VYH       0.191900
      9 C15        -35.4260    -1.1650    20.0610 c3         1 VYH       0.171800
     10 N          -33.7130    -4.2750    18.9420 nb         1 VYH      -0.226000
     11 C11        -32.4510    -4.6740    15.4450 cd         1 VYH      -0.023200
     12 C1         -27.9040    -6.8570     8.5120 ca         1 VYH       0.361300
     13 C18        -38.0800     1.9070    23.0120 c6         1 VYH       0.124300
     14 C2         -28.5210    -7.7710     7.6400 ca         1 VYH      -0.161000
     15 C16        -35.9540    -0.9490    21.4900 c3         1 VYH      -0.102400
     16 C9         -31.7930    -4.6070    13.1410 ca         1 VYH      -0.020800
     17 C12        -33.0660    -4.1090    16.6370 ca         1 VYH      -0.285800
     18 C14        -34.2160    -3.0370    18.8000 ca         1 VYH       0.366900
     19 C          -26.4480    -6.4710     8.3440 c3         1 VYH      -0.153400
     20 O          -37.8260     2.0730    25.4600 os         1 VYH      -0.448000
     21 C3         -29.8680    -8.1050     7.8450 ca         1 VYH      -0.072000
     22 C19        -38.7920     2.1100    24.3820 c6         1 VYH       0.152600
     23 C20        -37.0870     0.8290    25.5010 c6         1 VYH       0.152600
     24 C21        -36.3410     0.5940    24.1530 c6         1 VYH       0.124300
     25 C22        -33.6190    -2.8220    16.5940 ca         1 VYH       0.300900
     26 C24        -33.2490     0.4030    15.9760 c3         1 VYH      -0.090400
     27 C25        -31.8900     0.5840    15.2600 c3         1 VYH      -0.092400
     28 C26        -31.0340     1.7060    15.8800 c3         1 VYH       0.151800
     29 C27        -32.9890    -2.5710    14.1900 c          1 VYH       0.575200
     30 C28        -32.5640    -5.1040    12.0700 ca         1 VYH       0.140000
     31 C29        -31.9410    -5.7390    10.9820 ca         1 VYH      -0.087000
     32 N2         -37.2740     0.6460    22.9790 n3         1 VYH      -0.727600
     33 N3         -34.2010    -2.2850    17.6860 nb         1 VYH      -0.290000
     34 N4         -33.5720    -2.0560    15.3770 n          1 VYH      -0.376300
     35 N5         -29.7500     1.8590    15.1730 n8         1 VYH      -1.005200
     36 N6         -28.5570    -6.2840     9.5460 nb         1 VYH      -0.666000
     37 Cl         -34.3230    -4.9600    12.0790 cl         1 VYH      -0.220000
     38 H10        -34.8020    -3.0950    20.7550 hn         1 VYH       0.466000
     39 H6         -28.6910    -5.4860    12.0210 ha         1 VYH       0.131000
     40 H7         -29.7890    -4.3740    13.9210 ha         1 VYH       0.122000
     41 H9         -32.7270    -5.8170    17.9560 h4         1 VYH       0.028100
     42 H12        -34.6880    -0.3840    19.8260 h1         1 VYH       0.055700
     43 H11        -36.2570    -1.0680    19.3480 h1         1 VYH       0.055700
     44 H8         -32.0270    -5.6760    15.4690 ha         1 VYH       0.196000
     45 H18        -37.4340     2.7780    22.8210 h1         1 VYH       0.039950
     46 H17        -38.8430     1.8930    22.2190 h1         1 VYH       0.039950
     47 H3         -27.9610    -8.2160     6.8230 ha         1 VYH       0.125000
     48 H13        -36.6910    -1.7260    21.7260 hc         1 VYH       0.057700
     49 H14        -35.1220    -1.0560    22.1950 hc         1 VYH       0.057700
     50 H1         -26.2920    -5.4050     8.5490 hc         1 VYH       0.053700
     51 H          -25.8130    -7.0440     9.0290 hc         1 VYH       0.053700
     52 H2         -26.1000    -6.6640     7.3220 hc         1 VYH       0.053700
     53 H4         -30.3740    -8.8150     7.1930 ha         1 VYH       0.118000
     54 H20        -39.3110     3.0790    24.3960 h1         1 VYH       0.052450
     55 H19        -39.5400     1.3190    24.5380 h1         1 VYH       0.052450
     56 H22        -36.3640     0.8670    26.3280 h1         1 VYH       0.052450
     57 H21        -37.7830     0.0000    25.6930 h1         1 VYH       0.052450
     58 H24        -35.5540     1.3560    24.0490 h1         1 VYH       0.039950
     59 H23        -35.8390    -0.3820    24.2110 h1         1 VYH       0.039950
     60 H27        -33.7910     1.3570    15.9580 hc         1 VYH       0.057200
     61 H28        -33.0720     0.1650    17.0320 hc         1 VYH       0.057200
     62 H30        -31.3300    -0.3590    15.3010 hc         1 VYH       0.049700
     63 H29        -32.0680     0.8080    14.2010 hc         1 VYH       0.049700
     64 H31        -31.5790     2.6590    15.8310 h1         1 VYH       0.028200
     65 H32        -30.8300     1.4760    16.9360 h1         1 VYH       0.028200
     66 H35        -32.5700    -6.0930    10.1700 ha         1 VYH       0.136000
     67 H33        -29.1850     2.5680    15.6570 hn         1 VYH       0.391500
     68 H34        -29.2030     0.9980    15.2850 hn         1 VYH       0.391500
     69 C23        -34.1570    -0.6830    15.3480 c3         1 VYH       0.098000
     70 C17        -36.6120     0.4380    21.6670 c3         1 VYH       0.166800
     71 O1         -32.9470    -1.9220    13.1520 o          1 VYH      -0.514000
     72 H5         -31.5780    -7.7590     9.1060 ha         1 VYH       0.128000
     73 H16        -35.8490     1.2120    21.5030 h1         1 VYH       0.044200
     74 H15        -37.3580     0.5530    20.8680 h1         1 VYH       0.044200
     75 H26        -34.3960    -0.3910    14.3170 h1         1 VYH       0.079700
     76 H25        -35.1170    -0.6920    15.8810 h1         1 VYH       0.079700
@<TRIPOS>BOND
     1     1     9 1   
     2     1    18 1   
     3     1    38 1   
     4     2     3 ar  
     5     2    21 ar  
     6     2    72 1   
     7     3     4 1   
     8     3    36 ar  
     9     4     5 ar  
    10     4    31 ar  
    11     5     6 ar  
    12     5    39 1   
    13     6    16 ar  
    14     6    40 1   
    15     7    11 2   
    16     7    16 1   
    17     7    29 1   
    18     8    10 ar  
    19     8    17 ar  
    20     8    41 1   
    21     9    15 1   
    22     9    42 1   
    23     9    43 1   
    24    10    18 ar  
    25    11    17 1   
    26    11    44 1   
    27    12    14 ar  
    28    12    19 1   
    29    12    36 ar  
    30    13    22 1   
    31    13    32 1   
    32    13    45 1   
    33    13    46 1   
    34    14    21 ar  
    35    14    47 1   
    36    15    48 1   
    37    15    49 1   
    38    15    70 1   
    39    16    30 ar  
    40    17    25 ar  
    41    18    33 ar  
    42    19    50 1   
    43    19    51 1   
    44    19    52 1   
    45    20    22 1   
    46    20    23 1   
    47    21    53 1   
    48    22    54 1   
    49    22    55 1   
    50    23    24 1   
    51    23    56 1   
    52    23    57 1   
    53    24    32 1   
    54    24    58 1   
    55    24    59 1   
    56    25    33 ar  
    57    25    34 1   
    58    26    27 1   
    59    26    60 1   
    60    26    61 1   
    61    26    69 1   
    62    27    28 1   
    63    27    62 1   
    64    27    63 1   
    65    28    35 1   
    66    28    64 1   
    67    28    65 1   
    68    29    34 1   
    69    29    71 2   
    70    30    31 ar  
    71    30    37 1   
    72    31    66 1   
    73    32    70 1   
    74    34    69 1   
    75    35    67 1   
    76    35    68 1   
    77    69    75 1   
    78    69    76 1   
    79    70    73 1   
    80    70    74 1   
@<TRIPOS>SUBSTRUCTURE
     1 VYH         1 TEMP              0 ****  ****    0 ROOT
