@<TRIPOS>MOLECULE
VYI
   47    50     1     0     0
SMALL
abcg2


@<TRIPOS>ATOM
      1 C1          -3.9450    -2.4560     1.7580 ca         1 VYI      -0.090000
      2 C2          -4.4760    -3.5090     1.0260 ca         1 VYI      -0.126000
      3 C3          -3.4560     2.9030     0.5090 ca         1 VYI      -0.057000
      4 C4          -3.2950    -1.4080     1.1240 ca         1 VYI      -0.134000
      5 C5          -3.5500     1.5860     0.0970 ca         1 VYI      -0.167000
      6 C6          -2.2970     3.6280     0.2880 ca         1 VYI      -0.151000
      7 C7          -4.3550    -3.5040    -0.3580 ca         1 VYI      -0.115000
      8 C8           5.1890    -0.8900     0.2110 ca         1 VYI      -0.177500
      9 C9           3.4650    -2.5900     0.3060 ca         1 VYI      -0.177500
     10 C10          4.2370     0.0860     0.4540 ca         1 VYI       0.013500
     11 C11          2.5160    -1.6110     0.5490 ca         1 VYI       0.013500
     12 C12         -1.2470     1.6650    -0.6770 ca         1 VYI      -0.207300
     13 C13         -2.4510     0.9700    -0.4990 ca         1 VYI       0.346000
     14 C14         -3.1810    -1.3710    -0.2680 ca         1 VYI       0.286000
     15 C15         -1.2020     3.0170    -0.3130 ca         1 VYI       0.156100
     16 C16          4.7840    -2.2100     0.1390 ca         1 VYI       0.224000
     17 C17         -3.7240    -2.4450    -0.9730 ca         1 VYI       0.094000
     18 C18          2.9060    -0.2790     0.6180 ca         1 VYI      -0.303500
     19 C19         -0.0310     0.9110    -1.1650 c3         1 VYI       0.286100
     20 C20          1.8010     2.5700    -1.2980 c3         1 VYI       0.200800
     21 C21          0.7100     3.5810    -1.6120 c3         1 VYI       0.147600
     22 N22          1.2140     1.4240    -0.6260 n3         1 VYI      -0.790500
     23 N23         -2.5270    -0.3560    -0.9370 nu         1 VYI      -1.007000
     24 O24          0.5440     0.3400     1.5240 o          1 VYI      -0.534500
     25 O25          2.3470     2.0990     1.5210 o          1 VYI      -0.534500
     26 O26         -0.1070     3.8040    -0.4780 os         1 VYI      -0.343100
     27 F28         -3.6120    -2.4380    -2.3170 f          1 VYI      -0.192000
     28 S29          1.6820     0.9740     0.8820 sy         1 VYI       1.199600
     29 H1          -4.0210    -2.4520     2.8380 ha         1 VYI       0.119000
     30 H2          -4.9760    -4.3300     1.5210 ha         1 VYI       0.118000
     31 H4          -2.8640    -0.6070     1.7100 ha         1 VYI       0.140000
     32 H7          -4.7560    -4.3100    -0.9580 ha         1 VYI       0.128000
     33 H3          -4.3080     3.3830     0.9730 ha         1 VYI       0.119000
     34 H5          -4.4750     1.0390     0.2300 ha         1 VYI       0.128000
     35 H6          -2.2330     4.6700     0.5720 ha         1 VYI       0.132000
     36 H8           6.2310    -0.6270     0.0840 ha         1 VYI       0.137500
     37 H10          4.5470     1.1200     0.5220 ha         1 VYI       0.139000
     38 H9           3.1830    -3.6330     0.2560 ha         1 VYI       0.137500
     39 H11          1.4850    -1.8990     0.6950 ha         1 VYI       0.139000
     40 H191        -0.1420    -0.1420    -0.9090 h1         1 VYI       0.062700
     41 H192         0.0590     0.9350    -2.2550 h1         1 VYI       0.062700
     42 H23         -2.2440    -0.5410    -1.8860 hn         1 VYI       0.501000
     43 H201         2.2900     2.2620    -2.2260 h1         1 VYI       0.064700
     44 H202         2.5580     3.0210    -0.6610 h1         1 VYI       0.064700
     45 H211         1.1620     4.5370    -1.8800 h1         1 VYI       0.058700
     46 H212         0.1040     3.2600    -2.4650 h1         1 VYI       0.058700
     47 F27          5.7010    -3.1530    -0.0930 f          1 VYI      -0.169000
@<TRIPOS>BOND
     1     1     2 ar  
     2     1     4 ar  
     3     1    29 1   
     4     2     7 ar  
     5     2    30 1   
     6     3     5 ar  
     7     3     6 ar  
     8     3    33 1   
     9     4    14 ar  
    10     4    31 1   
    11     5    13 ar  
    12     5    34 1   
    13     6    15 ar  
    14     6    35 1   
    15     7    17 ar  
    16     7    32 1   
    17     8    10 ar  
    18     8    16 ar  
    19     8    36 1   
    20     9    11 ar  
    21     9    16 ar  
    22     9    38 1   
    23    10    18 ar  
    24    10    37 1   
    25    11    18 ar  
    26    11    39 1   
    27    12    13 ar  
    28    12    15 ar  
    29    12    19 1   
    30    13    23 1   
    31    14    17 ar  
    32    14    23 1   
    33    15    26 1   
    34    16    47 1   
    35    17    27 1   
    36    18    28 1   
    37    19    22 1   
    38    19    40 1   
    39    19    41 1   
    40    20    21 1   
    41    20    22 1   
    42    20    43 1   
    43    20    44 1   
    44    21    26 1   
    45    21    45 1   
    46    21    46 1   
    47    22    28 1   
    48    23    42 1   
    49    24    28 2   
    50    25    28 2   
@<TRIPOS>SUBSTRUCTURE
     1 VYI         1 TEMP              0 ****  ****    0 ROOT
