@<TRIPOS>MOLECULE
VYI
   47    50     1     0     0
SMALL
No Charge or Current Charge


@<TRIPOS>ATOM
      1 C1          -4.1160    -1.9500     2.3000 ca         1 VYI      -0.090000
      2 C2          -4.7000    -3.0910     1.7250 ca         1 VYI      -0.126000
      3 C3          -2.9980     3.3620     0.4830 ca         1 VYI      -0.057000
      4 C4          -3.5400    -0.9620     1.4810 ca         1 VYI      -0.134000
      5 C5          -3.3520     2.0280     0.2530 ca         1 VYI      -0.167000
      6 C6          -1.8050     3.8570    -0.0540 ca         1 VYI      -0.151000
      7 C7          -4.7020    -3.2490     0.3290 ca         1 VYI      -0.115000
      8 C8           4.6200    -0.4850     1.6130 ca         1 VYI      -0.177500
      9 C9           4.9650    -1.4930    -0.5760 ca         1 VYI      -0.177500
     10 C10          3.2400    -0.4010     1.3630 ca         1 VYI       0.013500
     11 C11          3.5860    -1.4120    -0.8340 ca         1 VYI       0.013500
     12 C12         -1.3150     1.6770    -1.0590 ca         1 VYI      -0.207300
     13 C13         -2.5270     1.1860    -0.5090 ca         1 VYI       0.346000
     14 C14         -3.5480    -1.0990     0.0790 ca         1 VYI       0.286000
     15 C15         -0.9580     3.0360    -0.8150 ca         1 VYI       0.156100
     16 C16          5.4760    -1.0300     0.6450 ca         1 VYI       0.224000
     17 C17         -4.1260    -2.2620    -0.4900 ca         1 VYI       0.094000
     18 C18          2.7220    -0.8670     0.1370 ca         1 VYI      -0.303500
     19 C19         -0.4340     0.7650    -1.9120 c3         1 VYI       0.286100
     20 C20          1.6760     1.7150    -0.9680 c3         1 VYI       0.200800
     21 C21          1.3560     2.9680    -1.8140 c3         1 VYI       0.147600
     22 N22          0.9060     0.5060    -1.3490 n3         1 VYI      -0.790500
     23 N23         -2.9620    -0.1210    -0.7430 nu         1 VYI      -1.007000
     24 O24          0.5830    -1.9710    -0.9400 o          1 VYI      -0.534500
     25 O25          0.2430    -0.3040     0.9890 o          1 VYI      -0.534500
     26 O26          0.2060     3.6470    -1.2570 os         1 VYI      -0.343100
     27 F28         -4.1320    -2.4390    -1.8340 f          1 VYI      -0.192000
     28 S29          0.9580    -0.7550    -0.2090 sy         1 VYI       1.199600
     29 H1          -4.1040    -1.8330     3.3820 ha         1 VYI       0.119000
     30 H2          -5.1440    -3.8550     2.3600 ha         1 VYI       0.118000
     31 H4          -3.0720    -0.0970     1.9410 ha         1 VYI       0.140000
     32 H7          -5.1460    -4.1340    -0.1210 ha         1 VYI       0.128000
     33 H3          -3.6460     4.0090     1.0710 ha         1 VYI       0.119000
     34 H5          -4.2900     1.6520     0.6520 ha         1 VYI       0.128000
     35 H6          -1.5250     4.8910     0.1270 ha         1 VYI       0.132000
     36 H8           5.0270    -0.1280     2.5550 ha         1 VYI       0.137500
     37 H10          2.5830     0.0270     2.1210 ha         1 VYI       0.139000
     38 H9           5.6370    -1.9110    -1.3200 ha         1 VYI       0.137500
     39 H11          3.1940    -1.7670    -1.7870 ha         1 VYI       0.139000
     40 H191        -0.9310    -0.1870    -2.1290 h1         1 VYI       0.062700
     41 H192        -0.3360     1.2370    -2.8990 h1         1 VYI       0.062700
     42 H23         -2.8060    -0.4490    -1.6950 hn         1 VYI       0.501000
     43 H201         2.7500     1.5090    -1.0700 h1         1 VYI       0.064700
     44 H202         1.5030     1.9710     0.0870 h1         1 VYI       0.064700
     45 H211         2.2210     3.6420    -1.7800 h1         1 VYI       0.058700
     46 H212         1.2020     2.6990    -2.8660 h1         1 VYI       0.058700
     47 F27          6.8020    -1.1080     0.8900 f          1 VYI      -0.169000
@<TRIPOS>BOND
     1     1     2 ar  
     2     1     4 ar  
     3     1    29 1   
     4     2     7 ar  
     5     2    30 1   
     6     3     5 ar  
     7     3     6 ar  
     8     3    33 1   
     9     4    14 ar  
    10     4    31 1   
    11     5    13 ar  
    12     5    34 1   
    13     6    15 ar  
    14     6    35 1   
    15     7    17 ar  
    16     7    32 1   
    17     8    10 ar  
    18     8    16 ar  
    19     8    36 1   
    20     9    11 ar  
    21     9    16 ar  
    22     9    38 1   
    23    10    18 ar  
    24    10    37 1   
    25    11    18 ar  
    26    11    39 1   
    27    12    13 ar  
    28    12    15 ar  
    29    12    19 1   
    30    13    23 1   
    31    14    17 ar  
    32    14    23 1   
    33    15    26 1   
    34    16    47 1   
    35    17    27 1   
    36    18    28 1   
    37    19    22 1   
    38    19    40 1   
    39    19    41 1   
    40    20    21 1   
    41    20    22 1   
    42    20    43 1   
    43    20    44 1   
    44    21    26 1   
    45    21    45 1   
    46    21    46 1   
    47    22    28 1   
    48    23    42 1   
    49    24    28 2   
    50    25    28 2   
@<TRIPOS>SUBSTRUCTURE
     1 VYI         1 TEMP              0 ****  ****    0 ROOT
