@<TRIPOS>MOLECULE
VYJ
   93    99     1     0     0
SMALL
abcg2


@<TRIPOS>ATOM
      1 C13         -8.3820   -37.9380   -28.0170 c6         1 VYJ       0.196500
      2 C15         -9.5530   -40.0570   -27.7710 c6         1 VYJ       0.174300
      3 C20         -8.6270   -43.5090   -28.8630 c3         1 VYJ       0.153100
      4 C21         -7.5740   -37.1260   -29.0290 c6         1 VYJ      -0.108900
      5 C22         -7.5670   -35.6430   -28.6710 c6         1 VYJ       0.100500
      6 C24         -5.0250   -33.5640   -25.0470 ca         1 VYJ      -0.127000
      7 C26         -2.4650   -35.8370   -21.5320 ca         1 VYJ       0.397900
      8 C28         -1.2240   -36.3930   -19.7320 ca         1 VYJ       0.138900
      9 C01         -3.7370   -30.2700   -22.5750 c3         1 VYJ      -0.097100
     10 C04         -4.2990   -33.6330   -23.8720 ca         1 VYJ       0.087100
     11 C05         -3.8430   -34.8810   -23.3830 ca         1 VYJ       0.309000
     12 C06         -4.1480   -36.0250   -24.1110 ca         1 VYJ      -0.128000
     13 C07         -4.8940   -35.9450   -25.2780 ca         1 VYJ      -0.092000
     14 C08         -5.3470   -34.7260   -25.7510 ca         1 VYJ      -0.140600
     15 C11         -7.8400   -36.1630   -26.3220 c6         1 VYJ       0.100500
     16 C12         -7.8750   -37.6590   -26.5960 c6         1 VYJ      -0.108900
     17 C16         -9.7130   -41.4240   -28.4110 c6         1 VYJ       0.163300
     18 C18         -7.3840   -41.4620   -28.8980 c6         1 VYJ       0.163300
     19 C19         -7.2280   -40.0990   -28.2500 c6         1 VYJ       0.174300
     20 C29         -1.0630   -37.6890   -20.2040 ca         1 VYJ      -0.106400
     21 C31         -0.5430   -39.8850   -19.2790 c          1 VYJ       0.592600
     22 C32         -1.8420   -40.4230   -19.7750 ca         1 VYJ      -0.154600
     23 C33         -2.3340   -40.1860   -21.0620 ca         1 VYJ       0.306000
     24 C35         -1.7190   -37.9740   -21.4010 ca         1 VYJ       0.377900
     25 C37         -1.7650   -39.4460   -23.3600 c5         1 VYJ       0.222500
     26 C38         -0.7760   -38.5600   -24.1250 c5         1 VYJ      -0.085400
     27 C39         -0.6270   -39.2860   -25.4540 c5         1 VYJ      -0.079900
     28 C40         -0.5020   -40.7500   -25.0360 c5         1 VYJ      -0.079900
     29 C41         -1.3900   -40.8870   -23.7820 c5         1 VYJ      -0.085400
     30 C42         -3.4980   -40.8310   -21.4770 ca         1 VYJ      -0.150000
     31 C43         -4.1590   -41.7050   -20.6300 ca         1 VYJ      -0.074000
     32 C44         -3.6790   -41.9370   -19.3480 ca         1 VYJ      -0.132000
     33 C45         -2.5210   -41.3050   -18.9340 ca         1 VYJ      -0.047000
     34 N10         -7.0520   -35.4640   -27.3240 n          1 VYJ      -0.415800
     35 N14         -8.4560   -39.3420   -28.3920 n3         1 VYJ      -0.737600
     36 N17         -8.4870   -42.1870   -28.2990 n3         1 VYJ      -0.718600
     37 N27         -1.9110   -35.4670   -20.3760 nb         1 VYJ      -0.235000
     38 N30         -0.1990   -38.6060   -19.5830 n          1 VYJ      -0.292000
     39 N34         -1.6680   -39.2690   -21.9100 na         1 VYJ      -0.788100
     40 N36         -2.4130   -37.0570   -22.0470 nb         1 VYJ      -0.275000
     41 O03         -3.9650   -32.5680   -23.1180 os         1 VYJ      -0.371100
     42 O46          0.1850   -40.5870   -18.5960 o          1 VYJ      -0.549000
     43 H1          -9.4120   -37.5630   -28.0690 h1         1 VYJ       0.051700
     44 H2          -9.4130   -40.1890   -26.6850 h1         1 VYJ       0.036450
     45 H3         -10.4760   -39.4880   -27.9090 h1         1 VYJ       0.036450
     46 H4          -9.4330   -44.0480   -28.3610 h1         1 VYJ       0.030367
     47 H5          -8.8510   -43.5010   -29.9410 h1         1 VYJ       0.030367
     48 H6          -7.7070   -44.0780   -28.7200 h1         1 VYJ       0.030367
     49 H7          -8.0040   -37.2540   -30.0240 hc         1 VYJ       0.053450
     50 H8          -6.5390   -37.4770   -29.0760 hc         1 VYJ       0.053450
     51 H9          -6.9560   -35.0820   -29.3730 h1         1 VYJ       0.054700
     52 H10         -8.5840   -35.2400   -28.7280 h1         1 VYJ       0.054700
     53 H11         -5.3610   -32.6080   -25.4280 ha         1 VYJ       0.132000
     54 H12         -0.7530   -36.0880   -18.8030 h4         1 VYJ       0.031100
     55 H13         -3.9820   -29.2590   -22.8980 hc         1 VYJ       0.048700
     56 H14         -4.1590   -30.4150   -21.5800 hc         1 VYJ       0.048700
     57 H15         -2.6520   -30.3460   -22.5080 hc         1 VYJ       0.048700
     58 H18         -3.7980   -36.9860   -23.7730 ha         1 VYJ       0.152000
     59 H19         -5.1000   -36.8580   -25.8220 ha         1 VYJ       0.120000
     60 H20         -7.4580   -35.9540   -25.3260 h1         1 VYJ       0.054700
     61 H21         -8.8600   -35.7640   -26.3600 h1         1 VYJ       0.054700
     62 H22         -8.5220   -38.1360   -25.8550 hc         1 VYJ       0.053450
     63 H23         -6.8720   -38.0710   -26.4560 hc         1 VYJ       0.053450
     64 H24        -10.0180   -41.2950   -29.4650 h1         1 VYJ       0.037450
     65 H25        -10.5180   -41.9660   -27.9080 h1         1 VYJ       0.037450
     66 H26         -7.5240   -41.3310   -29.9860 h1         1 VYJ       0.037450
     67 H27         -6.4640   -42.0350   -28.7580 h1         1 VYJ       0.037450
     68 H28         -6.9420   -40.2440   -27.1950 h1         1 VYJ       0.036450
     69 H29         -6.4050   -39.5710   -28.7350 h1         1 VYJ       0.036450
     70 H30         -2.7760   -39.2140   -23.7200 h1         1 VYJ       0.043700
     71 H31          0.1830   -38.5460   -23.5970 hc         1 VYJ       0.056200
     72 H32         -1.1140   -37.5310   -24.2340 hc         1 VYJ       0.056200
     73 H33          0.2240   -38.9320   -26.0370 hc         1 VYJ       0.045200
     74 H34         -1.5230   -39.1360   -26.0620 hc         1 VYJ       0.045200
     75 H35         -0.7910   -41.4430   -25.8260 hc         1 VYJ       0.045200
     76 H36          0.5360   -40.9700   -24.7820 hc         1 VYJ       0.045200
     77 H37         -2.2810   -41.4780   -23.9910 hc         1 VYJ       0.056200
     78 H38         -0.8540   -41.3970   -22.9810 hc         1 VYJ       0.056200
     79 H39         -3.8990   -40.6460   -22.4640 ha         1 VYJ       0.123000
     80 H40         -5.0610   -42.1950   -20.9720 ha         1 VYJ       0.117000
     81 H41         -4.1970   -42.6130   -18.6810 ha         1 VYJ       0.121000
     82 H42         -2.1300   -41.4960   -17.9440 ha         1 VYJ       0.134000
     83 H43          1.8590   -38.8680   -19.2700 h1         1 VYJ       0.047033
     84 H44          1.3590   -37.2280   -19.6720 h1         1 VYJ       0.047033
     85 H45          1.0670   -37.8670   -18.0470 h1         1 VYJ       0.047033
     86 C09         -6.0310   -34.6150   -27.0740 c          1 VYJ       0.626700
     87 N25         -3.1290   -34.8500   -22.1940 nu         1 VYJ      -0.917900
     88 O23         -5.6210   -33.8060   -27.8980 o          1 VYJ      -0.598100
     89 C02         -4.2990   -31.2610   -23.5650 c3         1 VYJ       0.170600
     90 C47          1.0890   -38.1170   -19.1080 c3         1 VYJ       0.090300
     91 H16         -3.8790   -31.0870   -24.5610 h1         1 VYJ       0.038700
     92 H17         -5.3860   -31.1570   -23.6390 h1         1 VYJ       0.038700
     93 H48         -3.0740   -33.9510   -21.7370 hn         1 VYJ       0.532000
@<TRIPOS>BOND
     1     1     4 1   
     2     1    16 1   
     3     1    35 1   
     4     1    43 1   
     5     2    17 1   
     6     2    35 1   
     7     2    44 1   
     8     2    45 1   
     9     3    36 1   
    10     3    46 1   
    11     3    47 1   
    12     3    48 1   
    13     4     5 1   
    14     4    49 1   
    15     4    50 1   
    16     5    34 1   
    17     5    51 1   
    18     5    52 1   
    19     6    10 ar  
    20     6    14 ar  
    21     6    53 1   
    22     7    37 ar  
    23     7    40 ar  
    24     7    87 1   
    25     8    20 ar  
    26     8    37 ar  
    27     8    54 1   
    28     9    55 1   
    29     9    56 1   
    30     9    57 1   
    31     9    89 1   
    32    10    11 ar  
    33    10    41 1   
    34    11    12 ar  
    35    11    87 1   
    36    12    13 ar  
    37    12    58 1   
    38    13    14 ar  
    39    13    59 1   
    40    14    86 1   
    41    15    16 1   
    42    15    34 1   
    43    15    60 1   
    44    15    61 1   
    45    16    62 1   
    46    16    63 1   
    47    17    36 1   
    48    17    64 1   
    49    17    65 1   
    50    18    19 1   
    51    18    36 1   
    52    18    66 1   
    53    18    67 1   
    54    19    35 1   
    55    19    68 1   
    56    19    69 1   
    57    20    24 ar  
    58    20    38 1   
    59    21    22 1   
    60    21    38 1   
    61    21    42 2   
    62    22    23 ar  
    63    22    33 ar  
    64    23    30 ar  
    65    23    39 1   
    66    24    39 1   
    67    24    40 ar  
    68    25    26 1   
    69    25    29 1   
    70    25    39 1   
    71    25    70 1   
    72    26    27 1   
    73    26    71 1   
    74    26    72 1   
    75    27    28 1   
    76    27    73 1   
    77    27    74 1   
    78    28    29 1   
    79    28    75 1   
    80    28    76 1   
    81    29    77 1   
    82    29    78 1   
    83    30    31 ar  
    84    30    79 1   
    85    31    32 ar  
    86    31    80 1   
    87    32    33 ar  
    88    32    81 1   
    89    33    82 1   
    90    34    86 1   
    91    38    90 1   
    92    41    89 1   
    93    83    90 1   
    94    84    90 1   
    95    85    90 1   
    96    86    88 2   
    97    87    93 1   
    98    89    91 1   
    99    89    92 1   
@<TRIPOS>SUBSTRUCTURE
     1 VYJ         1 TEMP              0 ****  ****    0 ROOT
