@<TRIPOS>MOLECULE
VYJ
   93    99     1     0     0
SMALL
No Charge or Current Charge


@<TRIPOS>ATOM
      1 C13         -8.6680   -37.9870   -28.2640 c6         1 VYJ       0.196500
      2 C15         -9.7810   -40.2160   -28.1020 c6         1 VYJ       0.174300
      3 C20         -9.2880   -43.5130   -30.0680 c3         1 VYJ       0.153100
      4 C21         -8.0800   -36.9420   -29.2380 c6         1 VYJ      -0.108900
      5 C22         -7.9200   -35.5690   -28.5490 c6         1 VYJ       0.100500
      6 C24         -5.3900   -33.4280   -24.7710 ca         1 VYJ      -0.127000
      7 C26         -1.8350   -35.5980   -21.9950 ca         1 VYJ       0.397900
      8 C28         -0.2040   -36.0600   -20.4700 ca         1 VYJ       0.138900
      9 C01         -4.5400   -30.3200   -21.7610 c3         1 VYJ      -0.097100
     10 C04         -4.3960   -33.4710   -23.7660 ca         1 VYJ       0.087100
     11 C05         -3.5490   -34.6040   -23.6570 ca         1 VYJ       0.309000
     12 C06         -3.6880   -35.6520   -24.5860 ca         1 VYJ      -0.128000
     13 C07         -4.6760   -35.6030   -25.5830 ca         1 VYJ      -0.092000
     14 C08         -5.5560   -34.5020   -25.6720 ca         1 VYJ      -0.140600
     15 C11         -7.5850   -36.6950   -26.3550 c6         1 VYJ       0.100500
     16 C12         -7.7420   -38.0790   -27.0230 c6         1 VYJ      -0.108900
     17 C16        -10.1530   -41.5290   -28.8650 c6         1 VYJ       0.163300
     18 C18         -8.1060   -41.3400   -30.1970 c6         1 VYJ       0.163300
     19 C19         -7.7300   -40.0230   -29.4430 c6         1 VYJ       0.174300
     20 C29         -0.3710   -37.4450   -20.6890 ca         1 VYJ      -0.106400
     21 C31         -0.3060   -39.4670   -19.1220 c          1 VYJ       0.592600
     22 C32         -1.7380   -39.8740   -19.3910 ca         1 VYJ      -0.154600
     23 C33         -2.3540   -39.7130   -20.6470 ca         1 VYJ       0.306000
     24 C35         -1.4300   -37.8130   -21.5510 ca         1 VYJ       0.377900
     25 C37         -1.2450   -39.9280   -22.8860 c5         1 VYJ       0.222500
     26 C38          0.0200   -39.3910   -23.6060 c5         1 VYJ      -0.085400
     27 C39          0.3030   -40.5090   -24.6480 c5         1 VYJ      -0.079900
     28 C40         -0.1730   -41.8240   -23.9530 c5         1 VYJ      -0.079900
     29 C41         -0.7410   -41.3620   -22.5800 c5         1 VYJ      -0.085400
     30 C42         -3.6780   -40.1350   -20.8530 ca         1 VYJ      -0.150000
     31 C43         -4.4040   -40.7360   -19.8140 ca         1 VYJ      -0.074000
     32 C44         -3.7960   -40.9220   -18.5640 ca         1 VYJ      -0.132000
     33 C45         -2.4720   -40.5010   -18.3560 ca         1 VYJ      -0.047000
     34 N10         -7.1180   -35.6290   -27.2930 n          1 VYJ      -0.415800
     35 N14         -8.9430   -39.2960   -28.9370 n3         1 VYJ      -0.737600
     36 N17         -8.9480   -42.2570   -29.3680 n3         1 VYJ      -0.718600
     37 N27         -0.9190   -35.1350   -21.1350 nb         1 VYJ      -0.235000
     38 N30          0.3160   -38.3990   -19.8360 n          1 VYJ      -0.292000
     39 N34         -1.6670   -39.1610   -21.7060 na         1 VYJ      -0.788100
     40 N36         -2.1380   -36.8840   -22.2170 nb         1 VYJ      -0.275000
     41 O03         -4.2190   -32.4240   -22.8680 os         1 VYJ      -0.371100
     42 O46          0.3320   -40.0850   -18.2750 o          1 VYJ      -0.549000
     43 H1          -9.6310   -37.5810   -27.9170 h1         1 VYJ       0.051700
     44 H2          -9.2470   -40.4990   -27.1840 h1         1 VYJ       0.036450
     45 H3         -10.7100   -39.7140   -27.7950 h1         1 VYJ       0.036450
     46 H4          -9.8620   -44.1800   -29.4110 h1         1 VYJ       0.030367
     47 H5          -9.8900   -43.3110   -30.9650 h1         1 VYJ       0.030367
     48 H6          -8.3770   -44.0430   -30.3770 h1         1 VYJ       0.030367
     49 H7          -8.7300   -36.8390   -30.1170 hc         1 VYJ       0.053450
     50 H8          -7.0970   -37.2630   -29.6060 hc         1 VYJ       0.053450
     51 H9          -7.4420   -34.8760   -29.2560 h1         1 VYJ       0.054700
     52 H10         -8.9150   -35.1610   -28.3160 h1         1 VYJ       0.054700
     53 H11         -6.0490   -32.5690   -24.8610 ha         1 VYJ       0.132000
     54 H12          0.5160   -35.6780   -19.7470 h4         1 VYJ       0.031100
     55 H13         -5.1300   -29.3960   -21.7400 hc         1 VYJ       0.048700
     56 H14         -4.6440   -30.8170   -20.7900 hc         1 VYJ       0.048700
     57 H15         -3.4870   -30.0520   -21.9080 hc         1 VYJ       0.048700
     58 H18         -3.0170   -36.5040   -24.5610 ha         1 VYJ       0.152000
     59 H19         -4.7410   -36.4200   -26.2990 ha         1 VYJ       0.120000
     60 H20         -6.9090   -36.7930   -25.4960 h1         1 VYJ       0.054700
     61 H21         -8.5590   -36.3890   -25.9470 h1         1 VYJ       0.054700
     62 H22         -8.1440   -38.7840   -26.2850 hc         1 VYJ       0.053450
     63 H23         -6.7490   -38.4490   -27.3090 hc         1 VYJ       0.053450
     64 H24        -10.8150   -41.2690   -29.7050 h1         1 VYJ       0.037450
     65 H25        -10.7330   -42.1750   -28.1890 h1         1 VYJ       0.037450
     66 H26         -8.6400   -41.0710   -31.1210 h1         1 VYJ       0.037450
     67 H27         -7.1780   -41.8470   -30.5000 h1         1 VYJ       0.037450
     68 H28         -7.0640   -40.2880   -28.6090 h1         1 VYJ       0.036450
     69 H29         -7.1520   -39.3940   -30.1330 h1         1 VYJ       0.036450
     70 H30         -2.0850   -39.9700   -23.5950 h1         1 VYJ       0.043700
     71 H31          0.8590   -39.2700   -22.9100 hc         1 VYJ       0.056200
     72 H32         -0.1500   -38.4200   -24.0820 hc         1 VYJ       0.056200
     73 H33          1.3630   -40.5460   -24.9260 hc         1 VYJ       0.045200
     74 H34         -0.2610   -40.3340   -25.5720 hc         1 VYJ       0.045200
     75 H35         -0.9460   -42.3190   -24.5530 hc         1 VYJ       0.045200
     76 H36          0.6430   -42.5440   -23.8290 hc         1 VYJ       0.045200
     77 H37         -1.5420   -42.0200   -22.2250 hc         1 VYJ       0.056200
     78 H38          0.0370   -41.3560   -21.8080 hc         1 VYJ       0.056200
     79 H39         -4.1420   -39.9990   -21.8260 ha         1 VYJ       0.123000
     80 H40         -5.4300   -41.0620   -19.9780 ha         1 VYJ       0.117000
     81 H41         -4.3490   -41.3940   -17.7550 ha         1 VYJ       0.121000
     82 H42         -2.0180   -40.6570   -17.3790 ha         1 VYJ       0.134000
     83 H43          2.3210   -39.0400   -19.5400 h1         1 VYJ       0.047033
     84 H44          2.1600   -37.4260   -20.2660 h1         1 VYJ       0.047033
     85 H45          1.8110   -37.6550   -18.5270 h1         1 VYJ       0.047033
     86 C09         -6.6170   -34.4220   -26.7550 c          1 VYJ       0.626700
     87 N25         -2.5650   -34.6180   -22.6510 nu         1 VYJ      -0.917900
     88 O23         -6.9570   -33.3380   -27.2150 o          1 VYJ      -0.598100
     89 C02         -5.0290   -31.2360   -22.8940 c3         1 VYJ       0.170600
     90 C47          1.7360   -38.1110   -19.5220 c3         1 VYJ       0.090300
     91 H16         -4.9270   -30.7150   -23.8550 h1         1 VYJ       0.038700
     92 H17         -6.0870   -31.4810   -22.7340 h1         1 VYJ       0.038700
     93 H48         -2.4570   -33.6990   -22.2210 hn         1 VYJ       0.532000
@<TRIPOS>BOND
     1     1     4 1   
     2     1    16 1   
     3     1    35 1   
     4     1    43 1   
     5     2    17 1   
     6     2    35 1   
     7     2    44 1   
     8     2    45 1   
     9     3    36 1   
    10     3    46 1   
    11     3    47 1   
    12     3    48 1   
    13     4     5 1   
    14     4    49 1   
    15     4    50 1   
    16     5    34 1   
    17     5    51 1   
    18     5    52 1   
    19     6    10 ar  
    20     6    14 ar  
    21     6    53 1   
    22     7    37 ar  
    23     7    40 ar  
    24     7    87 1   
    25     8    20 ar  
    26     8    37 ar  
    27     8    54 1   
    28     9    55 1   
    29     9    56 1   
    30     9    57 1   
    31     9    89 1   
    32    10    11 ar  
    33    10    41 1   
    34    11    12 ar  
    35    11    87 1   
    36    12    13 ar  
    37    12    58 1   
    38    13    14 ar  
    39    13    59 1   
    40    14    86 1   
    41    15    16 1   
    42    15    34 1   
    43    15    60 1   
    44    15    61 1   
    45    16    62 1   
    46    16    63 1   
    47    17    36 1   
    48    17    64 1   
    49    17    65 1   
    50    18    19 1   
    51    18    36 1   
    52    18    66 1   
    53    18    67 1   
    54    19    35 1   
    55    19    68 1   
    56    19    69 1   
    57    20    24 ar  
    58    20    38 1   
    59    21    22 1   
    60    21    38 1   
    61    21    42 2   
    62    22    23 ar  
    63    22    33 ar  
    64    23    30 ar  
    65    23    39 1   
    66    24    39 1   
    67    24    40 ar  
    68    25    26 1   
    69    25    29 1   
    70    25    39 1   
    71    25    70 1   
    72    26    27 1   
    73    26    71 1   
    74    26    72 1   
    75    27    28 1   
    76    27    73 1   
    77    27    74 1   
    78    28    29 1   
    79    28    75 1   
    80    28    76 1   
    81    29    77 1   
    82    29    78 1   
    83    30    31 ar  
    84    30    79 1   
    85    31    32 ar  
    86    31    80 1   
    87    32    33 ar  
    88    32    81 1   
    89    33    82 1   
    90    34    86 1   
    91    38    90 1   
    92    41    89 1   
    93    83    90 1   
    94    84    90 1   
    95    85    90 1   
    96    86    88 2   
    97    87    93 1   
    98    89    91 1   
    99    89    92 1   
@<TRIPOS>SUBSTRUCTURE
     1 VYJ         1 TEMP              0 ****  ****    0 ROOT
