@<TRIPOS>MOLECULE
VYK
   27    27     1     0     0
SMALL
abcg2


@<TRIPOS>ATOM
      1 N1          -5.9290    16.0990   -33.7430 nt         1 VYK      -0.598000
      2 C7          -0.4090    14.4890   -35.5600 ca         1 VYK      -0.098000
      3 C8          -3.9390    17.4280   -34.1170 c3         1 VYK       0.074800
      4 C9          -5.4430    17.3400   -33.8800 c          1 VYK       0.596100
      5 C1          -1.9380    16.0760   -34.3370 c3         1 VYK       0.217100
      6 C5          -0.4800    12.0990   -35.1590 ca         1 VYK      -0.098000
      7 C6           0.0480    13.2020   -35.8130 ca         1 VYK       0.123000
      8 C4          -1.4940    12.3040   -34.2270 ca         1 VYK      -0.105000
      9 C3          -1.9620    13.5840   -33.9640 ca         1 VYK      -0.089000
     10 C2          -1.4230    14.6870   -34.6270 ca         1 VYK      -0.079300
     11 O           -6.1250    18.3600   -33.7800 o          1 VYK      -0.618100
     12 N           -3.3580    16.2150   -34.6660 n3         1 VYK      -0.742600
     13 C           -3.5970    16.1120   -36.1030 c3         1 VYK       0.145100
     14 H1          -6.9110    15.9490   -33.5720 hn         1 VYK       0.324500
     15 H2          -5.3060    15.3150   -33.8660 hn         1 VYK       0.324500
     16 H3           0.0160    15.3310   -36.0900 ha         1 VYK       0.128000
     17 H4          -3.4940    17.6260   -33.1380 h1         1 VYK       0.064200
     18 H5          -3.7570    18.3160   -34.7380 h1         1 VYK       0.064200
     19 H6          -1.3250    16.8120   -34.8780 h1         1 VYK       0.044700
     20 H7          -1.8270    16.2810   -33.2700 h1         1 VYK       0.044700
     21 H8          -0.1100    11.1060   -35.3710 ha         1 VYK       0.131000
     22 H9          -1.9150    11.4540   -33.7060 ha         1 VYK       0.120000
     23 H10         -2.7550    13.7350   -33.2410 ha         1 VYK       0.122000
     24 H12         -3.2440    15.1500   -36.4710 h1         1 VYK       0.039700
     25 H13         -4.6650    16.1840   -36.3060 h1         1 VYK       0.039700
     26 H14         -3.0820    16.9100   -36.6610 h1         1 VYK       0.039700
     27 CL           1.3200    12.9700   -36.9990 cl         1 VYK      -0.212000
@<TRIPOS>BOND
     1     1     4 1   
     2     1    14 1   
     3     1    15 1   
     4     2     7 ar  
     5     2    10 ar  
     6     2    16 1   
     7     3     4 1   
     8     3    12 1   
     9     3    17 1   
    10     3    18 1   
    11     4    11 2   
    12     5    10 1   
    13     5    12 1   
    14     5    19 1   
    15     5    20 1   
    16     6     7 ar  
    17     6     8 ar  
    18     6    21 1   
    19     7    27 1   
    20     8     9 ar  
    21     8    22 1   
    22     9    10 ar  
    23     9    23 1   
    24    12    13 1   
    25    13    24 1   
    26    13    25 1   
    27    13    26 1   
@<TRIPOS>SUBSTRUCTURE
     1 VYK         1 TEMP              0 ****  ****    0 ROOT
