@<TRIPOS>MOLECULE
VYK
   27    27     1     0     0
SMALL
No Charge or Current Charge


@<TRIPOS>ATOM
      1 N1          -6.2490    16.4780   -33.7030 nt         1 VYK      -0.598000
      2 C7          -0.4200    14.4920   -35.6370 ca         1 VYK      -0.098000
      3 C8          -3.9750    17.3810   -34.0090 c3         1 VYK       0.074800
      4 C9          -5.5200    17.5450   -34.1000 c          1 VYK       0.596100
      5 C1          -1.9400    15.9780   -34.2290 c3         1 VYK       0.217100
      6 C5          -0.3060    12.0870   -35.2720 ca         1 VYK      -0.098000
      7 C6           0.1050    13.2330   -35.9720 ca         1 VYK       0.123000
      8 C4          -1.2460    12.2010   -34.2330 ca         1 VYK      -0.105000
      9 C3          -1.7730    13.4610   -33.8980 ca         1 VYK      -0.089000
     10 C2          -1.3640    14.6140   -34.5970 ca         1 VYK      -0.079300
     11 O           -6.0770    18.5540   -34.5050 o          1 VYK      -0.618100
     12 N           -3.3750    16.1280   -34.5820 n3         1 VYK      -0.742600
     13 C           -3.6300    15.9830   -36.0380 c3         1 VYK       0.145100
     14 H1          -7.2550    16.5140   -33.7500 hn         1 VYK       0.324500
     15 H2          -5.7690    15.6370   -33.4170 hn         1 VYK       0.324500
     16 H3          -0.0960    15.3710   -36.1890 ha         1 VYK       0.128000
     17 H4          -3.7390    17.4420   -32.9390 h1         1 VYK       0.064200
     18 H5          -3.5300    18.2660   -34.4850 h1         1 VYK       0.064200
     19 H6          -1.3490    16.7650   -34.7170 h1         1 VYK       0.044700
     20 H7          -1.8090    16.1130   -33.1460 h1         1 VYK       0.044700
     21 H8           0.1030    11.1140   -35.5340 ha         1 VYK       0.131000
     22 H9          -1.5670    11.3150   -33.6900 ha         1 VYK       0.120000
     23 H10         -2.5040    13.5440   -33.0960 ha         1 VYK       0.122000
     24 H12         -3.2740    15.0130   -36.4080 h1         1 VYK       0.039700
     25 H13         -4.7040    16.0420   -36.2580 h1         1 VYK       0.039700
     26 H14         -3.1210    16.7740   -36.6060 h1         1 VYK       0.039700
     27 Cl           1.2800    13.0910   -37.2730 cl         1 VYK      -0.212000
@<TRIPOS>BOND
     1     1     4 1   
     2     1    14 1   
     3     1    15 1   
     4     2     7 ar  
     5     2    10 ar  
     6     2    16 1   
     7     3     4 1   
     8     3    12 1   
     9     3    17 1   
    10     3    18 1   
    11     4    11 2   
    12     5    10 1   
    13     5    12 1   
    14     5    19 1   
    15     5    20 1   
    16     6     7 ar  
    17     6     8 ar  
    18     6    21 1   
    19     7    27 1   
    20     8     9 ar  
    21     8    22 1   
    22     9    10 ar  
    23     9    23 1   
    24    12    13 1   
    25    13    24 1   
    26    13    25 1   
    27    13    26 1   
@<TRIPOS>SUBSTRUCTURE
     1 VYK         1 TEMP              0 ****  ****    0 ROOT
