@<TRIPOS>MOLECULE
VYM
   32    34     1     0     0
SMALL
No Charge or Current Charge


@<TRIPOS>ATOM
      1 C01         -7.6360    -7.0900    -9.0080 c          1 VYM       0.648100
      2 C02         -8.5390    -5.8640    -8.9400 cx         1 VYM      -0.238700
      3 C03         -9.6430    -5.8210    -7.9000 cx         1 VYM      -0.102900
      4 C04         -8.4420    -4.9190    -7.7540 cx         1 VYM      -0.102900
      5 C05         -6.5900    -8.7900   -10.5160 c6         1 VYM       0.094000
      6 C06         -5.8880    -8.2140   -11.7610 c6         1 VYM      -0.097400
      7 C07         -6.8680    -8.1340   -12.9570 c6         1 VYM      -0.019100
      8 C13         -9.2510    -7.5520   -13.5850 ca         1 VYM      -0.054000
      9 C08         -8.3160    -7.7980   -12.5620 ca         1 VYM      -0.149300
     10 C09         -8.7340    -7.8100   -11.2060 ca         1 VYM       0.017000
     11 C10        -10.0820    -7.5130   -10.9110 ca         1 VYM      -0.207000
     12 C11        -11.0050    -7.2680   -11.9340 ca         1 VYM       0.308000
     13 C12        -10.5920    -7.2870   -13.2700 ca         1 VYM      -0.192000
     14 N01         -7.7300    -7.9100   -10.1710 n          1 VYM      -0.232400
     15 O01         -6.8190    -7.3170    -8.1210 o          1 VYM      -0.590100
     16 H1          -8.7260    -5.3810    -9.8950 hc         1 VYM       0.099700
     17 H2         -10.5890    -5.3640    -8.1820 hc         1 VYM       0.080200
     18 H3          -9.7320    -6.6580    -7.2110 hc         1 VYM       0.080200
     19 H4          -7.7370    -5.1440    -6.9560 hc         1 VYM       0.080200
     20 H5          -8.5840    -3.8560    -7.9400 hc         1 VYM       0.080200
     21 H6          -6.9640    -9.8010   -10.7310 h1         1 VYM       0.066700
     22 H7          -5.8710    -8.8730    -9.6900 h1         1 VYM       0.066700
     23 H8          -5.0150    -8.8250   -12.0260 hc         1 VYM       0.050700
     24 H9          -5.5100    -7.2090   -11.5280 hc         1 VYM       0.050700
     25 H10         -6.8700    -9.1030   -13.4750 hc         1 VYM       0.047200
     26 H11         -6.4950    -7.4030   -13.6870 hc         1 VYM       0.047200
     27 H12         -8.9370    -7.5690   -14.6260 ha         1 VYM       0.110000
     28 H13        -10.4260    -7.5120    -9.8830 ha         1 VYM       0.123000
     29 H14        -11.3060    -7.0980   -14.0670 ha         1 VYM       0.114000
     30 H15        -12.5780    -6.8410   -10.6600 hn         1 VYM       0.449500
     31 H16        -12.9450    -6.6810   -12.3540 hn         1 VYM       0.449500
     32 N02        -12.3110    -7.0080   -11.6280 nv         1 VYM      -1.077000
@<TRIPOS>BOND
     1     1     2 1   
     2     1    14 1   
     3     1    15 2   
     4     2     3 1   
     5     2     4 1   
     6     2    16 1   
     7     3     4 1   
     8     3    17 1   
     9     3    18 1   
    10     4    19 1   
    11     4    20 1   
    12     5     6 1   
    13     5    14 1   
    14     5    21 1   
    15     5    22 1   
    16     6     7 1   
    17     6    23 1   
    18     6    24 1   
    19     7     9 1   
    20     7    25 1   
    21     7    26 1   
    22     8     9 ar  
    23     8    13 ar  
    24     8    27 1   
    25     9    10 ar  
    26    10    11 ar  
    27    10    14 1   
    28    11    12 ar  
    29    11    28 1   
    30    12    13 ar  
    31    12    32 1   
    32    13    29 1   
    33    30    32 1   
    34    31    32 1   
@<TRIPOS>SUBSTRUCTURE
     1 VYM         1 TEMP              0 ****  ****    0 ROOT
