@<TRIPOS>MOLECULE
VYM
   32    34     1     0     0
SMALL
abcg2


@<TRIPOS>ATOM
      1 C01         -7.7930    -7.1540    -9.0260 c          1 VYM       0.648100
      2 C02         -8.6320    -5.9260    -8.9170 cx         1 VYM      -0.238700
      3 C03         -9.4720    -5.7600    -7.6740 cx         1 VYM      -0.102900
      4 C04         -8.2550    -4.9280    -7.8580 cx         1 VYM      -0.102900
      5 C05         -6.7150    -8.7510   -10.5250 c6         1 VYM       0.094000
      6 C06         -5.9420    -8.1610   -11.6920 c6         1 VYM      -0.097400
      7 C07         -6.8420    -8.0320   -12.9170 c6         1 VYM      -0.019100
      8 C13         -9.2170    -7.5560   -13.5860 ca         1 VYM      -0.054000
      9 C08         -8.2780    -7.7250   -12.5750 ca         1 VYM      -0.149300
     10 C09         -8.7380    -7.6630   -11.2560 ca         1 VYM       0.017000
     11 C10        -10.0970    -7.5050   -10.9850 ca         1 VYM      -0.207000
     12 C11        -11.0210    -7.3220   -12.0110 ca         1 VYM       0.308000
     13 C12        -10.5570    -7.3400   -13.3290 ca         1 VYM      -0.192000
     14 N01         -7.8220    -7.8580   -10.2060 n          1 VYM      -0.232400
     15 O01         -7.0750    -7.5000    -8.1070 o          1 VYM      -0.590100
     16 H1          -9.0430    -5.5160    -9.8290 hc         1 VYM       0.099700
     17 H2         -10.4430    -5.2980    -7.7940 hc         1 VYM       0.080200
     18 H3          -9.4360    -6.5580    -6.9450 hc         1 VYM       0.080200
     19 H4          -7.3890    -5.1450    -7.2470 hc         1 VYM       0.080200
     20 H5          -8.3840    -3.8860    -8.1180 hc         1 VYM       0.080200
     21 H6          -7.1080    -9.7400   -10.7780 h1         1 VYM       0.066700
     22 H7          -6.0890    -8.8630    -9.6450 h1         1 VYM       0.066700
     23 H8          -5.0780    -8.7840   -11.9260 hc         1 VYM       0.050700
     24 H9          -5.5550    -7.1840   -11.3920 hc         1 VYM       0.050700
     25 H10         -6.8220    -8.9710   -13.4780 hc         1 VYM       0.047200
     26 H11         -6.4450    -7.2750   -13.5980 hc         1 VYM       0.047200
     27 H12         -8.8860    -7.5940   -14.6180 ha         1 VYM       0.110000
     28 H13        -10.4410    -7.5420    -9.9590 ha         1 VYM       0.123000
     29 H14        -11.2500    -7.2130   -14.1530 ha         1 VYM       0.114000
     30 H15        -12.6020    -6.8650   -10.8140 hn         1 VYM       0.449500
     31 H16        -12.9360    -6.7900   -12.4470 hn         1 VYM       0.449500
     32 N02        -12.3700    -7.2100   -11.7300 nv         1 VYM      -1.077000
@<TRIPOS>BOND
     1     1     2 1   
     2     1    14 1   
     3     1    15 2   
     4     2     3 1   
     5     2     4 1   
     6     2    16 1   
     7     3     4 1   
     8     3    17 1   
     9     3    18 1   
    10     4    19 1   
    11     4    20 1   
    12     5     6 1   
    13     5    14 1   
    14     5    21 1   
    15     5    22 1   
    16     6     7 1   
    17     6    23 1   
    18     6    24 1   
    19     7     9 1   
    20     7    25 1   
    21     7    26 1   
    22     8     9 ar  
    23     8    13 ar  
    24     8    27 1   
    25     9    10 ar  
    26    10    11 ar  
    27    10    14 1   
    28    11    12 ar  
    29    11    28 1   
    30    12    13 ar  
    31    12    32 1   
    32    13    29 1   
    33    30    32 1   
    34    31    32 1   
@<TRIPOS>SUBSTRUCTURE
     1 VYM         1 TEMP              0 ****  ****    0 ROOT
