@<TRIPOS>MOLECULE
VYN
   65    68     1     0     0
SMALL
No Charge or Current Charge


@<TRIPOS>ATOM
      1 N1          42.3080    15.2070    42.5140 nu         1 VYN      -0.839100
      2 C2          36.8850    19.2350    55.6600 ca         1 VYN      -0.160000
      3 N3          42.8140    15.9390    47.1730 n          1 VYN      -0.371300
      4 C4          37.3510    17.4340    54.1350 ca         1 VYN      -0.155000
      5 C5          38.1320    18.3270    53.3550 cp         1 VYN       0.394500
      6 C6          38.8350    17.8960    52.0930 cp         1 VYN      -0.117500
      7 C8          39.8440    18.4370    49.9090 ca         1 VYN      -0.084000
      8 C24         39.8300    16.1370    50.6800 ca         1 VYN       0.140000
      9 Cl          40.2000    14.4260    50.4510 cl         1 VYN      -0.213000
     10 C25         39.1750    16.5360    51.8570 ca         1 VYN      -0.092000
     11 C3          36.7190    17.8900    55.3030 ca         1 VYN      -0.072000
     12 N5          38.2680    19.6250    53.7160 nb         1 VYN      -0.662000
     13 C1          37.6660    20.0680    54.8410 ca         1 VYN       0.354300
     14 C           37.8680    21.5340    55.1740 c3         1 VYN      -0.144400
     15 C9          40.1690    17.0870    49.6960 ca         1 VYN      -0.022800
     16 C7          39.1910    18.8360    51.0870 ca         1 VYN      -0.082000
     17 C10         40.8530    16.6930    48.4660 cc         1 VYN      -0.147400
     18 C23         42.2890    16.3040    48.4400 c          1 VYN       0.574200
     19 O2          42.9780    16.3080    49.4520 o          1 VYN      -0.519000
     20 C19         44.2500    15.5390    47.0840 c3         1 VYN       0.102000
     21 C20         45.1810    16.6500    46.5380 c3         1 VYN      -0.095400
     22 C21         45.2220    17.9270    47.4100 c3         1 VYN      -0.079400
     23 C22         46.1960    18.9900    46.8640 c3         1 VYN       0.160800
     24 N4          46.2220    20.1920    47.7180 n8         1 VYN      -1.026200
     25 C18         42.0020    15.9360    45.9850 ca         1 VYN       0.294900
     26 C12         40.6540    16.3140    46.0530 ca         1 VYN      -0.272800
     27 C11         40.0750    16.7030    47.3310 cd         1 VYN      -0.037200
     28 N2          42.5550    15.5650    44.8130 nb         1 VYN      -0.259000
     29 C14         41.7570    15.5810    43.7310 ca         1 VYN       0.366900
     30 N           40.4610    15.9280    43.6930 nb         1 VYN      -0.256000
     31 C13         39.9070    16.2960    44.8630 ca         1 VYN       0.191900
     32 C15         43.6700    14.6830    42.2470 c3         1 VYN       0.213500
     33 C17         44.0210    14.8700    40.7370 c3         1 VYN       0.151100
     34 O1          43.0080    14.3040    39.8730 oh         1 VYN      -0.671500
     35 C16         43.8040    13.2020    42.7160 c3         1 VYN       0.151100
     36 O           45.1690    12.7430    42.6390 oh         1 VYN      -0.671500
     37 H1          41.6680    15.2010    41.7210 hn         1 VYN       0.457000
     38 H3          37.2210    16.4010    53.8310 ha         1 VYN       0.126000
     39 H4          40.1020    19.1820    49.1590 ha         1 VYN       0.122000
     40 H5          38.9460    15.7750    52.5960 ha         1 VYN       0.135000
     41 H6          36.1150    17.2190    55.9110 ha         1 VYN       0.120000
     42 H7          38.8920    21.8560    54.9520 hc         1 VYN       0.054033
     43 H8          37.1820    22.1610    54.5930 hc         1 VYN       0.054033
     44 H9          37.6830    21.7290    56.2360 hc         1 VYN       0.054033
     45 H10         38.9520    19.8900    51.2160 ha         1 VYN       0.128000
     46 H11         44.3360    14.6560    46.4360 h1         1 VYN       0.078700
     47 H12         44.6200    15.2200    48.0670 h1         1 VYN       0.078700
     48 H13         46.1950    16.2400    46.4590 hc         1 VYN       0.048200
     49 H14         44.8720    16.9180    45.5200 hc         1 VYN       0.048200
     50 H15         44.2150    18.3590    47.4680 hc         1 VYN       0.052700
     51 H16         45.5160    17.6560    48.4310 hc         1 VYN       0.052700
     52 H17         47.2110    18.5720    46.8170 h1         1 VYN       0.025200
     53 H18         45.8930    19.2840    45.8500 h1         1 VYN       0.025200
     54 H19         46.8330    20.8960    47.2840 hn         1 VYN       0.401000
     55 H20         45.2960    20.6360    47.6940 hn         1 VYN       0.401000
     56 H22         39.0270    16.9910    47.3930 ha         1 VYN       0.196000
     57 H23         38.8550    16.5770    44.8440 h4         1 VYN       0.028100
     58 H24         44.3970    15.2790    42.8160 h1         1 VYN       0.060700
     59 H25         45.0000    14.4170    40.5340 h1         1 VYN       0.047950
     60 H26         44.1190    15.9470    40.5390 h1         1 VYN       0.047950
     61 H27         43.3030    14.4540    38.9470 ho         1 VYN       0.444000
     62 H28         43.4470    13.1250    43.7520 h1         1 VYN       0.047950
     63 H29         43.1500    12.5700    42.0990 h1         1 VYN       0.047950
     64 H30         45.1760    11.8070    42.9410 ho         1 VYN       0.444000
     65 H2          36.4120    19.6310    56.5550 ha         1 VYN       0.123000
@<TRIPOS>BOND
     1     1    29 1   
     2     1    32 1   
     3     1    37 1   
     4     2    11 ar  
     5     2    13 ar  
     6     2    65 1   
     7     3    18 1   
     8     3    20 1   
     9     3    25 1   
    10     4     5 ar  
    11     4    11 ar  
    12     4    38 1   
    13     5     6 1   
    14     5    12 ar  
    15     6    10 ar  
    16     6    16 ar  
    17     7    15 ar  
    18     7    16 ar  
    19     7    39 1   
    20     8     9 1   
    21     8    10 ar  
    22     8    15 ar  
    23    10    40 1   
    24    11    41 1   
    25    12    13 ar  
    26    13    14 1   
    27    14    42 1   
    28    14    43 1   
    29    14    44 1   
    30    15    17 1   
    31    16    45 1   
    32    17    18 1   
    33    17    27 2   
    34    18    19 2   
    35    20    21 1   
    36    20    46 1   
    37    20    47 1   
    38    21    22 1   
    39    21    48 1   
    40    21    49 1   
    41    22    23 1   
    42    22    50 1   
    43    22    51 1   
    44    23    24 1   
    45    23    52 1   
    46    23    53 1   
    47    24    54 1   
    48    24    55 1   
    49    25    26 ar  
    50    25    28 ar  
    51    26    27 1   
    52    26    31 ar  
    53    27    56 1   
    54    28    29 ar  
    55    29    30 ar  
    56    30    31 ar  
    57    31    57 1   
    58    32    33 1   
    59    32    35 1   
    60    32    58 1   
    61    33    34 1   
    62    33    59 1   
    63    33    60 1   
    64    34    61 1   
    65    35    36 1   
    66    35    62 1   
    67    35    63 1   
    68    36    64 1   
@<TRIPOS>SUBSTRUCTURE
     1 VYN         1 TEMP              0 ****  ****    0 ROOT
