@<TRIPOS>MOLECULE
VYN
   65    68     1     0     0
SMALL
abcg2


@<TRIPOS>ATOM
      1 N1          42.4130    14.2130    42.7730 nu         1 VYN      -0.839100
      2 C2          37.1840    19.8430    55.3870 ca         1 VYN      -0.160000
      3 N3          42.5190    15.6390    47.2160 n          1 VYN      -0.371300
      4 C4          36.8730    19.1390    53.1230 ca         1 VYN      -0.155000
      5 C5          38.2120    18.7790    53.0920 cp         1 VYN       0.394500
      6 C6          38.8290    18.1960    51.8680 cp         1 VYN      -0.117500
      7 C8          40.1580    18.4420    49.8730 ca         1 VYN      -0.084000
      8 C24         38.9520    16.4250    50.2430 ca         1 VYN       0.140000
      9 CL          38.5510    14.7640    49.8220 cl         1 VYN      -0.213000
     10 C25         38.4350    16.9340    51.4250 ca         1 VYN      -0.092000
     11 C3          36.3670    19.7350    54.2760 ca         1 VYN      -0.072000
     12 N5          39.0310    18.9720    54.1430 nb         1 VYN      -0.662000
     13 C1          38.5280    19.4660    55.2760 ca         1 VYN       0.354300
     14 C           39.4710    19.6400    56.4380 c3         1 VYN      -0.144400
     15 C9          39.8790    17.1300    49.4760 ca         1 VYN      -0.022800
     16 C7          39.6580    18.9700    51.0530 ca         1 VYN      -0.082000
     17 C10         40.5170    16.5700    48.2600 cc         1 VYN      -0.147400
     18 C23         41.9100    16.1390    48.3760 c          1 VYN       0.574200
     19 O2          42.5590    16.2670    49.4110 o          1 VYN      -0.519000
     20 C19         43.9760    15.3860    47.2450 c3         1 VYN       0.102000
     21 C20         44.7450    16.5160    46.5690 c3         1 VYN      -0.095400
     22 C21         44.8070    17.7870    47.4130 c3         1 VYN      -0.079400
     23 C22         45.5820    18.9130    46.7500 c3         1 VYN       0.160800
     24 N4          45.5040    20.1310    47.5660 n8         1 VYN      -1.026200
     25 C18         41.8290    15.4610    46.0380 ca         1 VYN       0.294900
     26 C12         40.4700    15.8440    45.9650 ca         1 VYN      -0.272800
     27 C11         39.8400    16.4190    47.1010 cd         1 VYN      -0.037200
     28 N2          42.4890    15.0280    44.9680 nb         1 VYN      -0.259000
     29 C14         41.7790    14.7900    43.8660 ca         1 VYN       0.366900
     30 N           40.4770    15.1100    43.6940 nb         1 VYN      -0.256000
     31 C13         39.8480    15.6260    44.7390 ca         1 VYN       0.191900
     32 C15         43.5790    14.8890    42.1130 c3         1 VYN       0.213500
     33 C17         43.7900    14.1970    40.7770 c3         1 VYN       0.151100
     34 O1          44.0060    12.7950    40.9850 oh         1 VYN      -0.671500
     35 C16         44.8120    14.7560    43.0000 c3         1 VYN       0.151100
     36 O           45.7930    15.6860    42.4950 oh         1 VYN      -0.671500
     37 H1          41.6830    14.0960    42.0770 hn         1 VYN       0.457000
     38 H3          36.2470    19.0030    52.2520 ha         1 VYN       0.126000
     39 H4          40.8390    19.0270    49.2620 ha         1 VYN       0.122000
     40 H5          37.7930    16.3400    52.0620 ha         1 VYN       0.135000
     41 H6          35.3160    19.9930    54.3080 ha         1 VYN       0.120000
     42 H7          40.4450    19.2320    56.1850 hc         1 VYN       0.054033
     43 H8          39.5360    20.6940    56.7250 hc         1 VYN       0.054033
     44 H9          39.0640    19.1220    57.3110 hc         1 VYN       0.054033
     45 H10         39.9690    19.9630    51.3530 ha         1 VYN       0.128000
     46 H11         44.1380    14.4380    46.7390 h1         1 VYN       0.078700
     47 H12         44.2590    15.2930    48.2880 h1         1 VYN       0.078700
     48 H13         45.7530    16.1640    46.3240 hc         1 VYN       0.048200
     49 H14         44.3070    16.7430    45.5940 hc         1 VYN       0.048200
     50 H15         43.7890    18.1350    47.6180 hc         1 VYN       0.052700
     51 H16         45.2750    17.5490    48.3710 hc         1 VYN       0.052700
     52 H17         46.6380    18.6260    46.6960 h1         1 VYN       0.025200
     53 H18         45.2520    19.0570    45.7110 h1         1 VYN       0.025200
     54 H19         45.9800    20.9060    47.1200 hn         1 VYN       0.401000
     55 H20         44.5380    20.3930    47.7250 hn         1 VYN       0.401000
     56 H22         38.8120    16.7470    46.9940 ha         1 VYN       0.196000
     57 H23         38.8140    15.9280    44.5900 h4         1 VYN       0.028100
     58 H24         43.3290    15.9450    41.9750 h1         1 VYN       0.060700
     59 H25         44.6750    14.6250    40.3000 h1         1 VYN       0.047950
     60 H26         42.9190    14.3430    40.1310 h1         1 VYN       0.047950
     61 H27         44.2170    12.4180    40.1220 ho         1 VYN       0.444000
     62 H28         44.5800    14.9900    44.0330 h1         1 VYN       0.047950
     63 H29         45.2170    13.7440    42.9430 h1         1 VYN       0.047950
     64 H30         46.5960    15.6000    43.0290 ho         1 VYN       0.444000
     65 H2          36.8090    20.2820    56.3030 ha         1 VYN       0.123000
@<TRIPOS>BOND
     1     1    29 1   
     2     1    32 1   
     3     1    37 1   
     4     2    11 ar  
     5     2    13 ar  
     6     2    65 1   
     7     3    18 1   
     8     3    20 1   
     9     3    25 1   
    10     4     5 ar  
    11     4    11 ar  
    12     4    38 1   
    13     5     6 1   
    14     5    12 ar  
    15     6    10 ar  
    16     6    16 ar  
    17     7    15 ar  
    18     7    16 ar  
    19     7    39 1   
    20     8     9 1   
    21     8    10 ar  
    22     8    15 ar  
    23    10    40 1   
    24    11    41 1   
    25    12    13 ar  
    26    13    14 1   
    27    14    42 1   
    28    14    43 1   
    29    14    44 1   
    30    15    17 1   
    31    16    45 1   
    32    17    18 1   
    33    17    27 2   
    34    18    19 2   
    35    20    21 1   
    36    20    46 1   
    37    20    47 1   
    38    21    22 1   
    39    21    48 1   
    40    21    49 1   
    41    22    23 1   
    42    22    50 1   
    43    22    51 1   
    44    23    24 1   
    45    23    52 1   
    46    23    53 1   
    47    24    54 1   
    48    24    55 1   
    49    25    26 ar  
    50    25    28 ar  
    51    26    27 1   
    52    26    31 ar  
    53    27    56 1   
    54    28    29 ar  
    55    29    30 ar  
    56    30    31 ar  
    57    31    57 1   
    58    32    33 1   
    59    32    35 1   
    60    32    58 1   
    61    33    34 1   
    62    33    59 1   
    63    33    60 1   
    64    34    61 1   
    65    35    36 1   
    66    35    62 1   
    67    35    63 1   
    68    36    64 1   
@<TRIPOS>SUBSTRUCTURE
     1 VYN         1 TEMP              0 ****  ****    0 ROOT
