@<TRIPOS>MOLECULE
VYO
   19    19     1     0     0
SMALL
abcg2


@<TRIPOS>ATOM
      1 N1          25.7700    23.8630    31.2310 nc         1 VYO      -0.402000
      2 N2          26.8230    23.9790    29.1280 nv         1 VYO      -1.035900
      3 O1          23.9040    26.6160    34.3570 o          1 VYO      -0.469000
      4 C1          23.3440    25.5470    34.3380 c          1 VYO       0.603100
      5 C4          25.8570    24.3260    30.0150 cd         1 VYO       0.667300
      6 C3          23.9220    25.1160    31.1880 cd         1 VYO       0.496700
      7 C2          22.2780    25.1280    33.3440 c3         1 VYO      -0.028400
      8 O           23.5410    24.5780    35.2320 os         1 VYO      -0.438100
      9 C           24.4950    24.8500    36.2820 c3         1 VYO       0.153900
     10 S           22.4430    25.8900    31.7140 ss         1 VYO      -0.267300
     11 S1          24.5370    25.3980    29.5740 ss         1 VYO      -0.309800
     12 N           24.6540    24.3210    31.8970 nc         1 VYO      -0.308000
     13 H1          27.0130    24.6050    28.3610 hn         1 VYO       0.483500
     14 H2          27.6400    23.5350    29.5240 hn         1 VYO       0.483500
     15 H3          21.3110    25.4760    33.7160 h1         1 VYO       0.106700
     16 H4          22.2450    24.0460    33.2530 h1         1 VYO       0.106700
     17 H5          24.5090    23.9560    36.8980 h1         1 VYO       0.051367
     18 H6          25.4780    25.0340    35.8500 h1         1 VYO       0.051367
     19 H7          24.1770    25.7130    36.8640 h1         1 VYO       0.051367
@<TRIPOS>BOND
     1     1     5 2   
     2     1    12 1   
     3     2     5 1   
     4     2    13 1   
     5     2    14 1   
     6     3     4 2   
     7     4     7 1   
     8     4     8 1   
     9     5    11 1   
    10     6    10 1   
    11     6    11 1   
    12     6    12 2   
    13     7    10 1   
    14     7    15 1   
    15     7    16 1   
    16     8     9 1   
    17     9    17 1   
    18     9    18 1   
    19     9    19 1   
@<TRIPOS>SUBSTRUCTURE
     1 VYO         1 TEMP              0 ****  ****    0 ROOT
