@<TRIPOS>MOLECULE
VYO
   19    19     1     0     0
SMALL
No Charge or Current Charge


@<TRIPOS>ATOM
      1 N1          25.6840    23.6560    30.9800 nc         1 VYO      -0.402000
      2 N2          26.8470    24.1110    29.0480 nv         1 VYO      -1.035900
      3 O1          24.1860    26.3990    34.1490 o          1 VYO      -0.469000
      4 C1          23.3990    25.4810    34.3420 c          1 VYO       0.603100
      5 C4          25.8130    24.3600    29.8720 cd         1 VYO       0.667300
      6 C3          23.9570    25.0570    31.0460 cd         1 VYO       0.496700
      7 C2          22.2800    25.0760    33.3730 c3         1 VYO      -0.028400
      8 O           23.4030    24.6820    35.4570 os         1 VYO      -0.438100
      9 C           24.4010    24.9310    36.4650 c3         1 VYO       0.153900
     10 S           22.4700    25.7950    31.6620 ss         1 VYO      -0.267300
     11 S1          24.6370    25.5850    29.5350 ss         1 VYO      -0.309800
     12 N           24.5630    24.0670    31.6870 nc         1 VYO      -0.308000
     13 H1          27.0870    24.8300    28.3740 hn         1 VYO       0.483500
     14 H2          27.6140    23.5690    29.4300 hn         1 VYO       0.483500
     15 H3          21.3320    25.4100    33.8100 h1         1 VYO       0.106700
     16 H4          22.2610    23.9820    33.3150 h1         1 VYO       0.106700
     17 H5          24.2900    24.2230    37.2960 h1         1 VYO       0.051367
     18 H6          25.4120    24.8150    36.0530 h1         1 VYO       0.051367
     19 H7          24.3050    25.9470    36.8700 h1         1 VYO       0.051367
@<TRIPOS>BOND
     1     1     5 2   
     2     1    12 1   
     3     2     5 1   
     4     2    13 1   
     5     2    14 1   
     6     3     4 2   
     7     4     7 1   
     8     4     8 1   
     9     5    11 1   
    10     6    10 1   
    11     6    11 1   
    12     6    12 2   
    13     7    10 1   
    14     7    15 1   
    15     7    16 1   
    16     8     9 1   
    17     9    17 1   
    18     9    18 1   
    19     9    19 1   
@<TRIPOS>SUBSTRUCTURE
     1 VYO         1 TEMP              0 ****  ****    0 ROOT
