@<TRIPOS>MOLECULE
VYP
   33    35     1     0     0
SMALL
No Charge or Current Charge


@<TRIPOS>ATOM
      1 C9         -18.7180    10.1140    27.3720 ca         1 VYP      -0.288000
      2 C10        -19.3150    11.0770    28.1970 ca         1 VYP       0.154900
      3 C4         -17.2490     8.2330    25.4800 ca         1 VYP       0.190400
      4 C6         -15.2690     9.5610    25.7460 ca         1 VYP       0.190400
      5 C5         -16.6420     9.3770    26.0610 cp         1 VYP      -0.346500
      6 C8         -17.3890    10.3310    26.9420 cp         1 VYP       0.262500
      7 C12        -17.3860    12.3200    28.1300 ca         1 VYP       0.405900
      8 C2         -15.2820     7.6710    24.4750 ca         1 VYP       0.396900
      9 C15        -17.2010    14.3920    29.6130 c6         1 VYP       0.190800
     10 C19        -15.1880    13.6100    28.2880 c6         1 VYP       0.190800
     11 C16        -16.5870    15.8230    29.5730 c6         1 VYP       0.137600
     12 C18        -14.6810    15.0830    28.3200 c6         1 VYP       0.137600
     13 N11        -18.6520    12.1830    28.5770 nb         1 VYP      -0.251000
     14 N3         -16.5710     7.3810    24.6880 nb         1 VYP      -0.258000
     15 N7         -14.5890     8.7100    24.9540 nb         1 VYP      -0.258000
     16 N13        -16.7400    11.4420    27.3350 nb         1 VYP      -0.275000
     17 N14        -16.6750    13.4880    28.5240 nh         1 VYP      -0.778300
     18 N1         -14.6000     6.8140    23.6770 nv         1 VYP      -1.066900
     19 O17        -15.1450    15.7660    29.5050 os         1 VYP      -0.446000
     20 H24        -19.2790     9.2300    27.0890 ha         1 VYP       0.132000
     21 H25        -20.3360    10.9630    28.5590 h4         1 VYP       0.019100
     22 H23        -14.6970    10.4030    26.1340 h4         1 VYP       0.031600
     23 H26        -18.2920    14.5090    29.5370 h1         1 VYP       0.066200
     24 H27        -16.9930    13.9490    30.5980 h1         1 VYP       0.066200
     25 H33        -14.9070    13.1950    27.3090 h1         1 VYP       0.066200
     26 H32        -14.6420    13.0350    29.0500 h1         1 VYP       0.066200
     27 H28        -16.8840    16.3800    30.4720 h1         1 VYP       0.053700
     28 H29        -16.9680    16.3670    28.6970 h1         1 VYP       0.053700
     29 H31        -13.5820    15.0980    28.3010 h1         1 VYP       0.053700
     30 H30        -15.0410    15.6190    27.4300 h1         1 VYP       0.053700
     31 H21        -13.7020     7.1160    23.3040 hn         1 VYP       0.508500
     32 H20        -15.1280     6.1540    23.1090 hn         1 VYP       0.508500
     33 H22        -18.2960     7.9900    25.6410 h4         1 VYP       0.031600
@<TRIPOS>BOND
     1     1     2 ar  
     2     1     6 ar  
     3     1    20 1   
     4     2    13 ar  
     5     2    21 1   
     6     3     5 ar  
     7     3    14 ar  
     8     3    33 1   
     9     4     5 ar  
    10     4    15 ar  
    11     4    22 1   
    12     5     6 1   
    13     6    16 ar  
    14     7    13 ar  
    15     7    16 ar  
    16     7    17 1   
    17     8    14 ar  
    18     8    15 ar  
    19     8    18 1   
    20     9    11 1   
    21     9    17 1   
    22     9    23 1   
    23     9    24 1   
    24    10    12 1   
    25    10    17 1   
    26    10    25 1   
    27    10    26 1   
    28    11    19 1   
    29    11    27 1   
    30    11    28 1   
    31    12    19 1   
    32    12    29 1   
    33    12    30 1   
    34    18    31 1   
    35    18    32 1   
@<TRIPOS>SUBSTRUCTURE
     1 VYP         1 TEMP              0 ****  ****    0 ROOT
