@<TRIPOS>MOLECULE
VYP
   33    35     1     0     0
SMALL
abcg2


@<TRIPOS>ATOM
      1 C9         -18.7090    10.2230    27.3260 ca         1 VYP      -0.288000
      2 C10        -19.2430    11.1680    28.1820 ca         1 VYP       0.154900
      3 C4         -17.2690     8.4450    25.3900 ca         1 VYP       0.190400
      4 C6         -15.2800     9.5950    25.8630 ca         1 VYP       0.190400
      5 C5         -16.6540     9.4840    26.0870 cp         1 VYP      -0.346500
      6 C8         -17.3690    10.4010    26.9800 cp         1 VYP       0.262500
      7 C12        -17.2850    12.2880    28.2690 ca         1 VYP       0.405900
      8 C2         -15.3060     7.8270    24.4520 ca         1 VYP       0.396900
      9 C15        -17.0760    14.2710    29.7080 c6         1 VYP       0.190800
     10 C19        -15.1460    13.4850    28.4610 c6         1 VYP       0.190800
     11 C16        -16.6700    15.6870    29.3410 c6         1 VYP       0.137600
     12 C18        -14.8240    14.9350    28.1500 c6         1 VYP       0.137600
     13 N11        -18.5620    12.1940    28.6630 nb         1 VYP      -0.251000
     14 N3         -16.6250     7.6260    24.5860 nb         1 VYP      -0.258000
     15 N7         -14.6050     8.7930    25.0680 nb         1 VYP      -0.258000
     16 N13        -16.6720    11.4250    27.4560 nb         1 VYP      -0.275000
     17 N14        -16.5660    13.3440    28.7160 nh         1 VYP      -0.778300
     18 N1         -14.6360     7.0020    23.6450 nv         1 VYP      -1.066900
     19 O17        -15.2750    15.8030    29.1660 os         1 VYP      -0.446000
     20 H24        -19.3130     9.4020    26.9700 ha         1 VYP       0.132000
     21 H25        -20.2780    11.0890    28.4980 h4         1 VYP       0.019100
     22 H23        -14.7130    10.3750    26.3590 h4         1 VYP       0.031600
     23 H26        -18.1600    14.2040    29.7550 h1         1 VYP       0.066200
     24 H27        -16.6820    14.0120    30.6980 h1         1 VYP       0.066200
     25 H33        -14.8550    12.8600    27.6210 h1         1 VYP       0.066200
     26 H32        -14.5740    13.1530    29.3370 h1         1 VYP       0.066200
     27 H28        -16.9580    16.3710    30.1410 h1         1 VYP       0.053700
     28 H29        -17.1990    15.9900    28.4270 h1         1 VYP       0.053700
     29 H31        -13.7440    15.0630    28.0640 h1         1 VYP       0.053700
     30 H30        -15.2770    15.2060    27.1860 h1         1 VYP       0.053700
     31 H21        -13.6500     7.1240    23.4940 hn         1 VYP       0.508500
     32 H20        -15.1150     6.2710    23.1490 hn         1 VYP       0.508500
     33 H22        -18.3360     8.2690    25.4780 h4         1 VYP       0.031600
@<TRIPOS>BOND
     1     1     2 ar  
     2     1     6 ar  
     3     1    20 1   
     4     2    13 ar  
     5     2    21 1   
     6     3     5 ar  
     7     3    14 ar  
     8     3    33 1   
     9     4     5 ar  
    10     4    15 ar  
    11     4    22 1   
    12     5     6 1   
    13     6    16 ar  
    14     7    13 ar  
    15     7    16 ar  
    16     7    17 1   
    17     8    14 ar  
    18     8    15 ar  
    19     8    18 1   
    20     9    11 1   
    21     9    17 1   
    22     9    23 1   
    23     9    24 1   
    24    10    12 1   
    25    10    17 1   
    26    10    25 1   
    27    10    26 1   
    28    11    19 1   
    29    11    27 1   
    30    11    28 1   
    31    12    19 1   
    32    12    29 1   
    33    12    30 1   
    34    18    31 1   
    35    18    32 1   
@<TRIPOS>SUBSTRUCTURE
     1 VYP         1 TEMP              0 ****  ****    0 ROOT
