@<TRIPOS>MOLECULE
VYQ
   75    78     1     0     0
SMALL
abcg2


@<TRIPOS>ATOM
      1 C10        -53.4830   -29.7590   -39.8760 ca         1 VYQ      -0.103000
      2 C13        -51.4220   -27.5540   -37.6410 cc         1 VYQ      -0.181000
      3 C15        -52.8300   -26.0720   -36.1130 c3         1 VYQ      -0.121400
      4 C17        -49.4090   -27.1300   -36.3660 cc         1 VYQ       0.411300
      5 C20        -54.2840   -27.5010   -40.0970 ca         1 VYQ      -0.057300
      6 C21        -55.2040   -26.4700   -40.6880 c3         1 VYQ      -0.052800
      7 C24        -53.9520   -31.1630   -46.0450 c          1 VYQ       0.605100
      8 C26        -53.0410   -29.5000   -47.7820 c3         1 VYQ      -0.044000
      9 C28        -51.9280   -29.0370   -46.8420 c3         1 VYQ      -0.090767
     10 C02        -51.5610   -32.9220   -43.9760 c5         1 VYQ       0.152300
     11 C03        -52.3410   -32.1210   -42.9410 c5         1 VYQ      -0.131400
     12 C04        -53.5870   -31.6680   -43.7130 c5         1 VYQ       0.034700
     13 C05        -54.0850   -30.3390   -43.1640 c          1 VYQ       0.605100
     14 C07        -55.4510   -29.3430   -41.3940 c3         1 VYQ       0.161000
     15 C08        -56.7000   -29.7460   -40.6180 c3         1 VYQ      -0.103100
     16 C09        -54.3710   -28.8540   -40.4470 ca         1 VYQ      -0.084300
     17 C11        -52.5210   -29.3520   -38.9670 ca         1 VYQ      -0.103000
     18 C12        -52.4250   -28.0100   -38.6060 ca         1 VYQ      -0.005000
     19 C14        -51.5620   -26.7120   -36.5700 cd         1 VYQ       0.299300
     20 C19        -53.3100   -27.1030   -39.1870 ca         1 VYQ      -0.091000
     21 C25        -53.4010   -30.9790   -47.4580 c3         1 VYQ       0.046700
     22 C29        -52.5190   -29.4470   -49.2200 c3         1 VYQ      -0.090767
     23 C32        -55.2720   -33.0690   -49.9800 cx         1 VYQ       0.035000
     24 C34        -54.9670   -33.8380   -51.2170 cx         1 VYQ      -0.119400
     25 C35        -55.6590   -34.5050   -50.0650 cx         1 VYQ      -0.119400
     26 C38        -51.7520   -32.0820   -45.2270 c5         1 VYQ       0.108000
     27 F33        -56.2870   -32.1460   -50.0590 f          1 VYQ      -0.232000
     28 N06        -55.0100   -30.4630   -42.2000 ns         1 VYQ      -0.502900
     29 N16        -50.4110   -26.4850   -35.8650 nd         1 VYQ      -0.636000
     30 N23        -53.1090   -31.5640   -45.0790 n          1 VYQ      -0.390800
     31 N30        -54.3590   -31.5180   -48.3940 ns         1 VYQ      -0.478900
     32 O01        -52.1390   -34.1840   -44.2150 oh         1 VYQ      -0.648000
     33 O22        -53.6230   -29.2660   -43.5140 o          1 VYQ      -0.587100
     34 O36        -53.1640   -33.3620   -48.9640 o          1 VYQ      -0.608100
     35 O37        -55.1310   -30.9370   -45.8050 o          1 VYQ      -0.606100
     36 S18        -49.7780   -28.0710   -37.7470 ss         1 VYQ      -0.031400
     37 H1         -53.5410   -30.8080   -40.1390 ha         1 VYQ       0.105000
     38 H2         -52.8690   -26.0530   -35.0240 hc         1 VYQ       0.051367
     39 H3         -52.9040   -25.0390   -36.4590 hc         1 VYQ       0.051367
     40 H4         -53.7060   -26.6050   -36.4780 hc         1 VYQ       0.051367
     41 H5         -48.4060   -27.0960   -35.9630 h5         1 VYQ       0.052100
     42 H6         -56.2510   -26.6760   -40.4600 hc         1 VYQ       0.046367
     43 H7         -54.9740   -25.4780   -40.3030 hc         1 VYQ       0.046367
     44 H8         -55.1160   -26.4290   -41.7760 hc         1 VYQ       0.046367
     45 H9         -52.2410   -29.0390   -45.7970 hc         1 VYQ       0.041033
     46 H10        -51.0400   -29.6660   -46.9330 hc         1 VYQ       0.041033
     47 H11        -51.6320   -28.0170   -47.0930 hc         1 VYQ       0.041033
     48 H12        -50.5010   -33.0040   -43.7140 h1         1 VYQ       0.053700
     49 H13        -52.5910   -32.6890   -42.0440 hc         1 VYQ       0.065200
     50 H14        -51.7470   -31.2570   -42.6320 hc         1 VYQ       0.065200
     51 H15        -54.3770   -32.4220   -43.6380 h1         1 VYQ       0.073700
     52 H16        -55.7170   -28.5320   -42.0750 h1         1 VYQ       0.081700
     53 H17        -57.0650   -28.9080   -40.0250 hc         1 VYQ       0.045700
     54 H18        -57.4980   -30.0520   -41.2960 hc         1 VYQ       0.045700
     55 H19        -56.4880   -30.5690   -39.9350 hc         1 VYQ       0.045700
     56 H20        -51.8550   -30.0850   -38.5280 ha         1 VYQ       0.115000
     57 H21        -53.2270   -26.0510   -38.9400 ha         1 VYQ       0.118000
     58 H22        -52.4840   -31.5520   -47.5890 h1         1 VYQ       0.087700
     59 H23        -54.5930   -28.4860   -46.6180 hc         1 VYQ       0.041033
     60 H24        -53.9340   -27.5500   -47.9530 hc         1 VYQ       0.041033
     61 H25        -55.0750   -28.8400   -48.2800 hc         1 VYQ       0.041033
     62 H26        -51.6910   -30.1430   -49.3660 hc         1 VYQ       0.041033
     63 H27        -53.2940   -29.6880   -49.9480 hc         1 VYQ       0.041033
     64 H28        -52.1560   -28.4440   -49.4470 hc         1 VYQ       0.041033
     65 H29        -55.5630   -33.6040   -52.0900 hc         1 VYQ       0.092200
     66 H30        -53.9330   -34.0820   -51.4180 hc         1 VYQ       0.092200
     67 H31        -56.7160   -34.7170   -50.1690 hc         1 VYQ       0.092200
     68 H32        -55.1060   -35.2120   -49.4610 hc         1 VYQ       0.092200
     69 H33        -51.6400   -32.6810   -46.1310 h1         1 VYQ       0.070200
     70 H34        -51.0170   -31.2760   -45.2560 h1         1 VYQ       0.070200
     71 H35        -55.3270   -31.3860   -41.9440 hn         1 VYQ       0.313500
     72 H36        -55.2450   -31.0490   -48.4880 hn         1 VYQ       0.344500
     73 H37        -52.1360   -34.6820   -43.3910 ho         1 VYQ       0.444000
     74 C27        -54.2350   -28.5530   -47.6450 c3         1 VYQ      -0.090767
     75 C31        -54.1610   -32.6620   -49.0630 c          1 VYQ       0.621100
@<TRIPOS>BOND
     1     1    16 ar  
     2     1    17 ar  
     3     1    37 1   
     4     2    18 1   
     5     2    19 2   
     6     2    36 1   
     7     3    19 1   
     8     3    38 1   
     9     3    39 1   
    10     3    40 1   
    11     4    29 2   
    12     4    36 1   
    13     4    41 1   
    14     5     6 1   
    15     5    16 ar  
    16     5    20 ar  
    17     6    42 1   
    18     6    43 1   
    19     6    44 1   
    20     7    21 1   
    21     7    30 1   
    22     7    35 2   
    23     8     9 1   
    24     8    21 1   
    25     8    22 1   
    26     8    74 1   
    27     9    45 1   
    28     9    46 1   
    29     9    47 1   
    30    10    11 1   
    31    10    26 1   
    32    10    32 1   
    33    10    48 1   
    34    11    12 1   
    35    11    49 1   
    36    11    50 1   
    37    12    13 1   
    38    12    30 1   
    39    12    51 1   
    40    13    28 1   
    41    13    33 2   
    42    14    15 1   
    43    14    16 1   
    44    14    28 1   
    45    14    52 1   
    46    15    53 1   
    47    15    54 1   
    48    15    55 1   
    49    17    18 ar  
    50    17    56 1   
    51    18    20 ar  
    52    19    29 1   
    53    20    57 1   
    54    21    31 1   
    55    21    58 1   
    56    22    62 1   
    57    22    63 1   
    58    22    64 1   
    59    23    24 1   
    60    23    25 1   
    61    23    27 1   
    62    23    75 1   
    63    24    25 1   
    64    24    65 1   
    65    24    66 1   
    66    25    67 1   
    67    25    68 1   
    68    26    30 1   
    69    26    69 1   
    70    26    70 1   
    71    28    71 1   
    72    31    72 1   
    73    31    75 1   
    74    32    73 1   
    75    34    75 2   
    76    59    74 1   
    77    60    74 1   
    78    61    74 1   
@<TRIPOS>SUBSTRUCTURE
     1 VYQ         1 TEMP              0 ****  ****    0 ROOT
