@<TRIPOS>MOLECULE
VYQ
   75    78     1     0     0
SMALL
No Charge or Current Charge


@<TRIPOS>ATOM
      1 C10        -53.6410   -29.8530   -39.3170 ca         1 VYQ      -0.103000
      2 C13        -51.5420   -27.4330   -37.3320 cc         1 VYQ      -0.181000
      3 C15        -53.2000   -25.7770   -36.2280 c3         1 VYQ      -0.121400
      4 C17        -49.7520   -26.8550   -35.8470 cc         1 VYQ       0.411300
      5 C20        -54.1300   -27.5970   -40.1010 ca         1 VYQ      -0.057300
      6 C21        -54.8630   -26.6080   -41.0050 c3         1 VYQ      -0.052800
      7 C24        -53.8780   -31.3850   -46.1960 c          1 VYQ       0.605100
      8 C26        -52.8920   -29.6370   -47.9140 c3         1 VYQ      -0.044000
      9 C28        -51.7190   -29.2270   -46.9830 c3         1 VYQ      -0.090767
     10 C02        -51.3300   -32.9290   -43.9690 c5         1 VYQ       0.152300
     11 C03        -52.0170   -31.9140   -43.0240 c5         1 VYQ      -0.131400
     12 C04        -53.3870   -31.6770   -43.7270 c5         1 VYQ       0.034700
     13 C05        -54.0120   -30.3540   -43.1820 c          1 VYQ       0.605100
     14 C07        -55.3420   -29.6110   -41.1850 c3         1 VYQ       0.161000
     15 C08        -56.5710   -30.2150   -40.4810 c3         1 VYQ      -0.103100
     16 C09        -54.3550   -28.9960   -40.1820 ca         1 VYQ      -0.084300
     17 C11        -52.7240   -29.3380   -38.3880 ca         1 VYQ      -0.103000
     18 C12        -52.5070   -27.9550   -38.2970 ca         1 VYQ      -0.005000
     19 C14        -51.8690   -26.4600   -36.4080 cd         1 VYQ       0.299300
     20 C19        -53.2050   -27.0940   -39.1630 ca         1 VYQ      -0.091000
     21 C25        -53.3430   -31.1270   -47.6470 c3         1 VYQ       0.046700
     22 C29        -52.3980   -29.4780   -49.3800 c3         1 VYQ      -0.090767
     23 C32        -55.4200   -32.6300   -50.5460 cx         1 VYQ       0.035000
     24 C34        -55.6220   -34.0250   -51.1020 cx         1 VYQ      -0.119400
     25 C35        -56.4610   -33.5490   -49.9400 cx         1 VYQ      -0.119400
     26 C38        -51.6620   -32.3280   -45.3700 c5         1 VYQ       0.108000
     27 F33        -55.8620   -31.5730   -51.2920 f          1 VYQ      -0.232000
     28 N06        -54.6790   -30.6210   -42.0050 ns         1 VYQ      -0.502900
     29 N16        -50.8240   -26.1210   -35.5600 nd         1 VYQ      -0.636000
     30 N23        -52.9600   -31.6360   -45.1520 n          1 VYQ      -0.390800
     31 N30        -54.3820   -31.5650   -48.6120 ns         1 VYQ      -0.478900
     32 O01        -51.8710   -34.2440   -43.8040 oh         1 VYQ      -0.648000
     33 O22        -53.9490   -29.2360   -43.6800 o          1 VYQ      -0.587100
     34 O36        -53.0510   -32.7490   -50.0400 o          1 VYQ      -0.608100
     35 O37        -55.0800   -31.3390   -45.9500 o          1 VYQ      -0.606100
     36 S18        -49.9190   -28.0180   -37.1380 ss         1 VYQ      -0.031400
     37 H1         -53.7950   -30.9280   -39.3640 ha         1 VYQ       0.105000
     38 H2         -53.3160   -25.3930   -35.2080 hc         1 VYQ       0.051367
     39 H3         -53.3010   -24.9310   -36.9170 hc         1 VYQ       0.051367
     40 H4         -54.0290   -26.4690   -36.4140 hc         1 VYQ       0.051367
     41 H5         -48.8040   -26.7820   -35.3290 h5         1 VYQ       0.052100
     42 H6         -55.9500   -26.7040   -40.8970 hc         1 VYQ       0.046367
     43 H7         -54.6050   -25.5690   -40.7680 hc         1 VYQ       0.046367
     44 H8         -54.6080   -26.7730   -42.0580 hc         1 VYQ       0.046367
     45 H9         -52.0090   -29.2550   -45.9260 hc         1 VYQ       0.041033
     46 H10        -50.8540   -29.8860   -47.1270 hc         1 VYQ       0.041033
     47 H11        -51.3900   -28.2030   -47.1980 hc         1 VYQ       0.041033
     48 H12        -50.2430   -32.9540   -43.8050 h1         1 VYQ       0.053700
     49 H13        -52.1250   -32.2860   -41.9990 hc         1 VYQ       0.065200
     50 H14        -51.4340   -30.9860   -42.9680 hc         1 VYQ       0.065200
     51 H15        -54.0860   -32.5080   -43.5580 h1         1 VYQ       0.073700
     52 H16        -55.7190   -28.8370   -41.8640 h1         1 VYQ       0.081700
     53 H17        -57.0850   -29.4480   -39.8890 hc         1 VYQ       0.045700
     54 H18        -57.2810   -30.6080   -41.2180 hc         1 VYQ       0.045700
     55 H19        -56.2820   -31.0320   -39.8100 hc         1 VYQ       0.045700
     56 H20        -52.1860   -30.0180   -37.7310 ha         1 VYQ       0.115000
     57 H21        -53.0200   -26.0250   -39.1130 ha         1 VYQ       0.118000
     58 H22        -52.4670   -31.7720   -47.7860 h1         1 VYQ       0.087700
     59 H23        -54.4190   -28.6800   -46.6430 hc         1 VYQ       0.041033
     60 H24        -53.7640   -27.6200   -47.8980 hc         1 VYQ       0.041033
     61 H25        -54.9220   -28.8850   -48.3330 hc         1 VYQ       0.041033
     62 H26        -51.5950   -30.1910   -49.6030 hc         1 VYQ       0.041033
     63 H27        -53.2090   -29.6430   -50.1000 hc         1 VYQ       0.041033
     64 H28        -52.0080   -28.4680   -49.5570 hc         1 VYQ       0.041033
     65 H29        -56.1040   -34.1160   -52.0730 hc         1 VYQ       0.092200
     66 H30        -54.8560   -34.7710   -50.9040 hc         1 VYQ       0.092200
     67 H31        -57.5080   -33.3220   -50.1290 hc         1 VYQ       0.092200
     68 H32        -56.2590   -33.9780   -48.9610 hc         1 VYQ       0.092200
     69 H33        -51.7290   -33.1130   -46.1350 h1         1 VYQ       0.070200
     70 H34        -50.8840   -31.6170   -45.6740 h1         1 VYQ       0.070200
     71 H35        -54.6740   -31.5790   -41.6780 hn         1 VYQ       0.313500
     72 H36        -55.3440   -31.2980   -48.4310 hn         1 VYQ       0.344500
     73 H37        -51.5820   -34.5630   -42.9210 ho         1 VYQ       0.444000
     74 C27        -54.0710   -28.6510   -47.6820 c3         1 VYQ      -0.090767
     75 C31        -54.1630   -32.3360   -49.7330 c          1 VYQ       0.621100
@<TRIPOS>BOND
     1     1    16 ar  
     2     1    17 ar  
     3     1    37 1   
     4     2    18 1   
     5     2    19 2   
     6     2    36 1   
     7     3    19 1   
     8     3    38 1   
     9     3    39 1   
    10     3    40 1   
    11     4    29 2   
    12     4    36 1   
    13     4    41 1   
    14     5     6 1   
    15     5    16 ar  
    16     5    20 ar  
    17     6    42 1   
    18     6    43 1   
    19     6    44 1   
    20     7    21 1   
    21     7    30 1   
    22     7    35 2   
    23     8     9 1   
    24     8    21 1   
    25     8    22 1   
    26     8    74 1   
    27     9    45 1   
    28     9    46 1   
    29     9    47 1   
    30    10    11 1   
    31    10    26 1   
    32    10    32 1   
    33    10    48 1   
    34    11    12 1   
    35    11    49 1   
    36    11    50 1   
    37    12    13 1   
    38    12    30 1   
    39    12    51 1   
    40    13    28 1   
    41    13    33 2   
    42    14    15 1   
    43    14    16 1   
    44    14    28 1   
    45    14    52 1   
    46    15    53 1   
    47    15    54 1   
    48    15    55 1   
    49    17    18 ar  
    50    17    56 1   
    51    18    20 ar  
    52    19    29 1   
    53    20    57 1   
    54    21    31 1   
    55    21    58 1   
    56    22    62 1   
    57    22    63 1   
    58    22    64 1   
    59    23    24 1   
    60    23    25 1   
    61    23    27 1   
    62    23    75 1   
    63    24    25 1   
    64    24    65 1   
    65    24    66 1   
    66    25    67 1   
    67    25    68 1   
    68    26    30 1   
    69    26    69 1   
    70    26    70 1   
    71    28    71 1   
    72    31    72 1   
    73    31    75 1   
    74    32    73 1   
    75    34    75 2   
    76    59    74 1   
    77    60    74 1   
    78    61    74 1   
@<TRIPOS>SUBSTRUCTURE
     1 VYQ         1 TEMP              0 ****  ****    0 ROOT
