@<TRIPOS>MOLECULE
VYR
   75    79     1     0     0
SMALL
bcc


@<TRIPOS>ATOM
      1 C34         -6.9670     1.1960    -0.9810 cc         1 VYR      -0.098000
      2 C35         -7.9520     0.3780    -1.5840 cc         1 VYR      -0.147000
      3 C36         -7.6040    -0.9370    -1.5510 cd         1 VYR       0.025300
      4 CL          -8.4950    -2.2520    -2.1640 cl         1 VYR      -0.040400
      5 S37         -6.0860    -1.2060    -0.7940 ss         1 VYR       0.008200
      6 C33         -5.8990     0.4860    -0.5050 cd         1 VYR      -0.143600
      7 C31         -4.7210     0.9780     0.1610 cd         1 VYR       0.379200
      8 C32         -3.6480     0.3660     0.7240 cc         1 VYR      -0.366600
      9 O30         -4.5910     2.3030     0.2840 os         1 VYR      -0.107100
     10 N29         -3.4280     2.5880     0.9340 nd         1 VYR      -0.374300
     11 C28         -2.8610     1.4450     1.1970 cc         1 VYR       0.346600
     12 C27         -1.5450     1.4080     1.8910 c3         1 VYR      -0.106700
     13 C17         -0.4290     0.8940     0.9660 c3         1 VYR       0.144500
     14 C18          0.9370     1.0960     1.6430 c          1 VYR       0.648100
     15 O43          1.4420     0.1550     2.2400 o          1 VYR      -0.619100
     16 N19          1.4840     2.3210     1.5920 n          1 VYR      -0.458800
     17 C20          2.8230     2.5560     2.1140 c6         1 VYR       0.091500
     18 C21          3.8000     2.7730     0.9630 c6         1 VYR      -0.120400
     19 C22          3.3470     3.9220     0.0740 c6         1 VYR       0.151100
     20 O25          4.2610     4.0240    -0.9900 os         1 VYR      -0.405600
     21 C26          4.1170     5.1860    -1.7690 c3         1 VYR       0.121700
     22 C23          1.9090     3.6970    -0.3900 c6         1 VYR      -0.120400
     23 C24          0.9960     3.4430     0.8040 c6         1 VYR       0.091500
     24 N16         -0.6550    -0.5100     0.6870 n7         1 VYR      -0.809100
     25 S15         -0.3310    -1.1120    -0.8150 sy         1 VYR       1.288200
     26 O40         -0.6150    -2.5340    -0.7480 o          1 VYR      -0.601300
     27 O41         -1.0650    -0.2860    -1.7570 o          1 VYR      -0.601300
     28 C9           1.4100    -0.8320    -1.1100 ca         1 VYR      -0.296500
     29 C8           2.4030    -1.4880    -0.3660 ca         1 VYR       0.047700
     30 C13          2.1410    -2.6190     0.5920 c3         1 VYR      -0.036100
     31 C14          2.2410    -3.9800    -0.0980 c3         1 VYR      -0.088100
     32 C10          1.7160     0.1280    -2.0670 ca         1 VYR      -0.048000
     33 C11          3.0350     0.4710    -2.3040 ca         1 VYR      -0.144000
     34 C12          4.0350    -0.1260    -1.5600 ca         1 VYR      -0.063000
     35 C7           3.7210    -1.0850    -0.6050 ca         1 VYR       0.019600
     36 N3           4.7730    -1.6100     0.1940 n          1 VYR      -0.404000
     37 C2           5.0040    -0.9540     1.4790 c6         1 VYR       0.069000
     38 C1           5.8650    -1.8300     2.3550 c6         1 VYR       0.114400
     39 O6           7.0470    -2.1640     1.6670 os         1 VYR      -0.387600
     40 C5           6.7770    -2.9720     0.5550 c6         1 VYR       0.048400
     41 C4           5.6310    -2.5140    -0.3290 c          1 VYR       0.679500
     42 O39          5.4880    -3.0000    -1.4390 o          1 VYR      -0.616500
     43 H34         -7.0570     2.2700    -0.9030 ha         1 VYR       0.168000
     44 H35         -8.8690     0.7470    -2.0180 ha         1 VYR       0.168000
     45 H32         -3.4390    -0.6860     0.8020 ha         1 VYR       0.181000
     46 H271        -1.3040     2.4100     2.2490 hc         1 VYR       0.074200
     47 H272        -1.5990     0.7630     2.7700 hc         1 VYR       0.074200
     48 H17         -0.4790     1.4400     0.0230 h1         1 VYR       0.093700
     49 H16         -0.3590    -1.1240     1.4400 hn         1 VYR       0.447800
     50 H201         2.7880     3.4420     2.7540 h1         1 VYR       0.063450
     51 H202         3.1290     1.7190     2.7330 h1         1 VYR       0.063450
     52 H241        -0.0260     3.2900     0.4720 h1         1 VYR       0.063450
     53 H242         0.9700     4.3220     1.4550 h1         1 VYR       0.063450
     54 H211         4.7940     2.9770     1.3670 hc         1 VYR       0.063200
     55 H212         3.8640     1.8570     0.3670 hc         1 VYR       0.063200
     56 H22          3.3670     4.8510     0.6710 h1         1 VYR       0.031700
     57 H231         1.5260     4.5620    -0.9340 hc         1 VYR       0.063200
     58 H232         1.8720     2.8370    -1.0650 hc         1 VYR       0.063200
     59 H261         4.9630     5.2320    -2.4540 h1         1 VYR       0.031367
     60 H262         3.1990     5.1870    -2.3660 h1         1 VYR       0.031367
     61 H263         4.1200     6.0940    -1.1550 h1         1 VYR       0.031367
     62 H10          0.9320     0.6190    -2.6250 ha         1 VYR       0.161000
     63 H131         2.8580    -2.5820     1.4110 hc         1 VYR       0.049200
     64 H132         1.1670    -2.5340     1.0650 hc         1 VYR       0.049200
     65 H141         3.2290    -4.1420    -0.5260 hc         1 VYR       0.047700
     66 H142         2.0550    -4.7750     0.6230 hc         1 VYR       0.047700
     67 H143         1.5090    -4.0720    -0.8980 hc         1 VYR       0.047700
     68 H11          3.2750     1.2170    -3.0490 ha         1 VYR       0.145000
     69 H12          5.0690     0.1590    -1.7050 ha         1 VYR       0.147000
     70 H21C         5.4820     0.0180     1.3200 h1         1 VYR       0.061200
     71 H22C         4.0430    -0.7700     1.9620 h1         1 VYR       0.061200
     72 H11C         6.1430    -1.2910     3.2600 h1         1 VYR       0.060700
     73 H12C         5.3120    -2.7320     2.6530 h1         1 VYR       0.060700
     74 H51C         7.6770    -3.0120    -0.0590 h1         1 VYR       0.077700
     75 H52C         6.5420    -4.0040     0.8560 h1         1 VYR       0.077700
@<TRIPOS>BOND
     1     1     2 1   
     2     1     6 2   
     3     1    43 1   
     4     2     3 2   
     5     2    44 1   
     6     3     4 1   
     7     3     5 1   
     8     5     6 1   
     9     6     7 1   
    10     7     8 2   
    11     7     9 1   
    12     8    11 1   
    13     8    45 1   
    14     9    10 1   
    15    10    11 2   
    16    11    12 1   
    17    12    13 1   
    18    12    46 1   
    19    12    47 1   
    20    13    14 1   
    21    13    24 1   
    22    13    48 1   
    23    14    15 2   
    24    14    16 1   
    25    16    17 1   
    26    16    23 1   
    27    17    18 1   
    28    17    50 1   
    29    17    51 1   
    30    18    19 1   
    31    18    54 1   
    32    18    55 1   
    33    19    20 1   
    34    19    22 1   
    35    19    56 1   
    36    20    21 1   
    37    21    59 1   
    38    21    60 1   
    39    21    61 1   
    40    22    23 1   
    41    22    57 1   
    42    22    58 1   
    43    23    52 1   
    44    23    53 1   
    45    24    25 1   
    46    24    49 1   
    47    25    26 2   
    48    25    27 2   
    49    25    28 1   
    50    28    29 ar  
    51    28    32 ar  
    52    29    30 1   
    53    29    35 ar  
    54    30    31 1   
    55    30    63 1   
    56    30    64 1   
    57    31    65 1   
    58    31    66 1   
    59    31    67 1   
    60    32    33 ar  
    61    32    62 1   
    62    33    34 ar  
    63    33    68 1   
    64    34    35 ar  
    65    34    69 1   
    66    35    36 1   
    67    36    37 1   
    68    36    41 1   
    69    37    38 1   
    70    37    70 1   
    71    37    71 1   
    72    38    39 1   
    73    38    72 1   
    74    38    73 1   
    75    39    40 1   
    76    40    41 1   
    77    40    74 1   
    78    40    75 1   
    79    41    42 2   
@<TRIPOS>SUBSTRUCTURE
     1 VYR         1 TEMP              0 ****  ****    0 ROOT
