@<TRIPOS>MOLECULE
VYR
   75    79     1     0     0
SMALL
No Charge or Current Charge


@<TRIPOS>ATOM
      1 C34         -6.9750     1.1100    -1.6580 cc         1 VYR      -0.080000
      2 C35         -8.1310     0.3170    -1.8730 cc         1 VYR      -0.129000
      3 C36         -8.1660    -0.8220    -1.1080 cd         1 VYR      -0.028000
      4 Cl          -9.4360    -2.0040    -1.1290 cl         1 VYR      -0.132000
      5 S37         -6.7360    -0.9670    -0.0640 ss         1 VYR       0.298000
      6 C33         -6.1310     0.5640    -0.7230 cd         1 VYR      -0.288500
      7 C31         -4.8990     1.1960    -0.3500 cd         1 VYR       0.269500
      8 C32         -4.0280     0.7090     0.5610 cc         1 VYR      -0.218000
      9 O30         -4.4460     2.3760    -0.8750 os         1 VYR      -0.062700
     10 N29         -3.1740     2.6690    -0.2550 nd         1 VYR      -0.374300
     11 C28         -2.9860     1.6520     0.5750 cc         1 VYR       0.281300
     12 C27         -1.7720     1.5130     1.4490 c3         1 VYR      -0.106700
     13 C17         -0.6540     0.6730     0.7900 c3         1 VYR       0.144500
     14 C18          0.7020     0.8550     1.5610 c          1 VYR       0.581100
     15 O43          0.9760     0.1020     2.4920 o          1 VYR      -0.619100
     16 N19          1.6340     1.8330     1.1260 n          1 VYR      -0.391800
     17 C20          2.9310     1.9490     1.8540 c6         1 VYR       0.091500
     18 C21          4.0290     2.7220     1.0910 c6         1 VYR      -0.120400
     19 C22          3.5240     4.0880     0.6050 c6         1 VYR       0.174300
     20 O25          4.5880     4.7590    -0.1020 os         1 VYR      -0.452000
     21 C26          4.3610     6.1220    -0.5090 c3         1 VYR       0.144900
     22 C23          2.2870     3.8640    -0.2870 c6         1 VYR      -0.120400
     23 C24          1.1760     3.0950     0.4640 c6         1 VYR       0.091500
     24 N16         -1.1100    -0.7480     0.7250 n7         1 VYR      -0.864300
     25 S15         -0.5620    -1.7450    -0.5000 sy         1 VYR       1.146600
     26 O40         -0.5540    -3.0750     0.1070 o          1 VYR      -0.530500
     27 O41         -1.4250    -1.4440    -1.6430 o          1 VYR      -0.530500
     28 C9           1.1340    -1.1470    -0.8080 ca         1 VYR      -0.296500
     29 C8           2.3090    -1.6050    -0.1240 ca         1 VYR       0.047700
     30 C13          2.2520    -2.6310     1.0250 c3         1 VYR      -0.036100
     31 C14          2.3310    -4.1080     0.5750 c3         1 VYR      -0.088100
     32 C10          1.2620    -0.1630    -1.8160 ca         1 VYR      -0.030000
     33 C11          2.5090     0.3740    -2.1450 ca         1 VYR      -0.126000
     34 C12          3.6540    -0.0610    -1.4760 ca         1 VYR      -0.045000
     35 C7           3.5670    -1.0060    -0.4360 ca         1 VYR      -0.073000
     36 N3           4.8060    -1.5560     0.0570 n          1 VYR      -0.244400
     37 C2           5.7690    -0.5970     0.6740 c6         1 VYR       0.069000
     38 C1           6.9260    -1.2890     1.4430 c6         1 VYR       0.137600
     39 O6           7.5000    -2.3520     0.6510 os         1 VYR      -0.434000
     40 C5           6.5240    -3.3690     0.3180 c6         1 VYR       0.071600
     41 C4           5.3390    -2.7590    -0.4640 c          1 VYR       0.537000
     42 O39          4.9180    -3.2700    -1.4970 o          1 VYR      -0.541000
     43 H34         -6.8000     2.0430    -2.1890 ha         1 VYR       0.150000
     44 H35         -8.9070     0.5980    -2.5800 ha         1 VYR       0.150000
     45 H32         -4.0860    -0.2010     1.1440 ha         1 VYR       0.163000
     46 H271        -1.3880     2.5130     1.6830 hc         1 VYR       0.074200
     47 H272        -2.0510     1.0640     2.4100 hc         1 VYR       0.074200
     48 H17         -0.5180     1.0610    -0.2270 h1         1 VYR       0.093700
     49 H16         -0.7490    -1.2390     1.5440 hn         1 VYR       0.503000
     50 H201         2.7440     2.4510     2.8150 h1         1 VYR       0.063450
     51 H202         3.3100     0.9440     2.0880 h1         1 VYR       0.063450
     52 H241         0.3720     2.8960    -0.2550 h1         1 VYR       0.063450
     53 H242         0.7560     3.7540     1.2380 h1         1 VYR       0.063450
     54 H211         4.9050     2.8540     1.7390 hc         1 VYR       0.063200
     55 H212         4.3610     2.1290     0.2290 hc         1 VYR       0.063200
     56 H22          3.2440     4.6970     1.4780 h1         1 VYR       0.031700
     57 H231         1.8780     4.8230    -0.6310 hc         1 VYR       0.063200
     58 H232         2.5760     3.3030    -1.1860 hc         1 VYR       0.063200
     59 H261         5.2770     6.5470    -0.9380 h1         1 VYR       0.031367
     60 H262         3.5750     6.1840    -1.2710 h1         1 VYR       0.031367
     61 H263         4.0680     6.7420     0.3480 h1         1 VYR       0.031367
     62 H10          0.3890     0.1930    -2.3610 ha         1 VYR       0.143000
     63 H131         3.0600    -2.4490     1.7430 hc         1 VYR       0.049200
     64 H132         1.3490    -2.4880     1.6240 hc         1 VYR       0.049200
     65 H141         3.3560    -4.3950     0.3220 hc         1 VYR       0.047700
     66 H142         1.9970    -4.7680     1.3850 hc         1 VYR       0.047700
     67 H143         1.7020    -4.2950    -0.3020 hc         1 VYR       0.047700
     68 H11          2.5900     1.1150    -2.9370 ha         1 VYR       0.127000
     69 H12          4.6210     0.3330    -1.7810 ha         1 VYR       0.129000
     70 H21C         6.2020     0.0330    -0.1150 h1         1 VYR       0.061200
     71 H22C         5.2320     0.0640     1.3660 h1         1 VYR       0.061200
     72 H11C         7.7070    -0.5550     1.6870 h1         1 VYR       0.060700
     73 H12C         6.5480    -1.7090     2.3870 h1         1 VYR       0.060700
     74 H51C         6.9910    -4.1440    -0.3050 h1         1 VYR       0.077700
     75 H52C         6.1280    -3.8270     1.2350 h1         1 VYR       0.077700
@<TRIPOS>BOND
     1     1     2 1   
     2     1     6 2   
     3     1    43 1   
     4     2     3 2   
     5     2    44 1   
     6     3     4 1   
     7     3     5 1   
     8     5     6 1   
     9     6     7 1   
    10     7     8 2   
    11     7     9 1   
    12     8    11 1   
    13     8    45 1   
    14     9    10 1   
    15    10    11 2   
    16    11    12 1   
    17    12    13 1   
    18    12    46 1   
    19    12    47 1   
    20    13    14 1   
    21    13    24 1   
    22    13    48 1   
    23    14    15 2   
    24    14    16 1   
    25    16    17 1   
    26    16    23 1   
    27    17    18 1   
    28    17    50 1   
    29    17    51 1   
    30    18    19 1   
    31    18    54 1   
    32    18    55 1   
    33    19    20 1   
    34    19    22 1   
    35    19    56 1   
    36    20    21 1   
    37    21    59 1   
    38    21    60 1   
    39    21    61 1   
    40    22    23 1   
    41    22    57 1   
    42    22    58 1   
    43    23    52 1   
    44    23    53 1   
    45    24    25 1   
    46    24    49 1   
    47    25    26 2   
    48    25    27 2   
    49    25    28 1   
    50    28    29 ar  
    51    28    32 ar  
    52    29    30 1   
    53    29    35 ar  
    54    30    31 1   
    55    30    63 1   
    56    30    64 1   
    57    31    65 1   
    58    31    66 1   
    59    31    67 1   
    60    32    33 ar  
    61    32    62 1   
    62    33    34 ar  
    63    33    68 1   
    64    34    35 ar  
    65    34    69 1   
    66    35    36 1   
    67    36    37 1   
    68    36    41 1   
    69    37    38 1   
    70    37    70 1   
    71    37    71 1   
    72    38    39 1   
    73    38    72 1   
    74    38    73 1   
    75    39    40 1   
    76    40    41 1   
    77    40    74 1   
    78    40    75 1   
    79    41    42 2   
@<TRIPOS>SUBSTRUCTURE
     1 VYR         1 TEMP              0 ****  ****    0 ROOT
