@<TRIPOS>MOLECULE
VYT
   41    42     1     0     0
SMALL
abcg2


@<TRIPOS>ATOM
      1 N1          14.3150   -17.1660    17.2100 ne         1 VYT      -0.211400
      2 C7          13.6930   -19.8830    14.8410 ca         1 VYT       0.145100
      3 C8          15.7670   -20.7870    14.0770 c3         1 VYT       0.145400
      4 C9          12.2940   -19.9220    14.7900 ca         1 VYT       0.047100
      5 O1          14.3380   -20.7930    14.0710 os         1 VYT      -0.331600
      6 C1          15.6280   -13.6370    20.3920 ca         1 VYT       0.070100
      7 C5          13.5670   -18.0610    16.4130 ca         1 VYT       0.145400
      8 C6          14.3310   -18.9480    15.6550 ca         1 VYT      -0.190000
      9 C4          14.3810   -15.4910    18.7250 ca         1 VYT       0.076400
     10 C3          15.7750   -15.4010    18.7530 ca         1 VYT      -0.079000
     11 C2          16.3930   -14.4770    19.5830 ca         1 VYT      -0.164000
     12 N           13.6460   -16.3870    17.9270 nf         1 VYT      -0.192400
     13 O           16.1160   -12.7010    21.2410 os         1 VYT      -0.372100
     14 C11         11.5380   -19.0110    15.5500 ca         1 VYT       0.145100
     15 C13         12.1710   -18.0820    16.3660 ca         1 VYT      -0.190000
     16 C14         13.6120   -14.6460    19.5360 ca         1 VYT      -0.071000
     17 C15         14.2240   -13.7260    20.3640 ca         1 VYT       0.102100
     18 O2          11.6590   -20.8720    14.0380 os         1 VYT      -0.337100
     19 H6          16.0680   -21.5770    13.3940 h1         1 VYT       0.044700
     20 H7          16.1560   -19.8280    13.7260 h1         1 VYT       0.044700
     21 H8          16.1550   -20.9970    15.0760 h1         1 VYT       0.044700
     22 H5          15.4060   -18.8920    15.7210 ha         1 VYT       0.137500
     23 H17         14.0590   -12.3310    21.6530 ho         1 VYT       0.480000
     24 H4          16.3690   -16.0510    18.1280 ha         1 VYT       0.136000
     25 H3          17.4710   -14.4120    19.6010 ha         1 VYT       0.120000
     26 H2          17.6860   -11.7100    22.0310 h1         1 VYT       0.046367
     27 H1          18.0270   -13.4200    21.6570 h1         1 VYT       0.046367
     28 H           17.9300   -12.2170    20.3390 h1         1 VYT       0.046367
     29 H9          10.9660   -21.3500    12.1860 h1         1 VYT       0.037033
     30 H10         10.8430   -19.6160    12.5850 h1         1 VYT       0.037033
     31 H11         12.4290   -20.3300    12.1740 h1         1 VYT       0.037033
     32 H12          8.3470   -18.4850    15.9190 h1         1 VYT       0.044700
     33 H14          9.5320   -18.3580    17.2440 h1         1 VYT       0.044700
     34 H13          9.5690   -17.1880    15.8970 h1         1 VYT       0.044700
     35 H15         11.6120   -17.3780    16.9600 ha         1 VYT       0.137500
     36 H16         12.5320   -14.7160    19.5120 ha         1 VYT       0.144000
     37 O3          10.1940   -19.1200    15.4200 os         1 VYT      -0.331600
     38 O4          13.4670   -12.9100    21.1490 oh         1 VYT      -0.533100
     39 C10         11.4680   -20.5090    12.6590 c3         1 VYT       0.149900
     40 C           17.5320   -12.5090    21.3130 c3         1 VYT       0.158900
     41 C12          9.3720   -18.2270    16.1720 c3         1 VYT       0.145400
@<TRIPOS>BOND
     1     1     7 1   
     2     1    12 2   
     3     2     4 ar  
     4     2     5 1   
     5     2     8 ar  
     6     3     5 1   
     7     3    19 1   
     8     3    20 1   
     9     3    21 1   
    10     4    14 ar  
    11     4    18 1   
    12     6    11 ar  
    13     6    13 1   
    14     6    17 ar  
    15     7     8 ar  
    16     7    15 ar  
    17     8    22 1   
    18     9    10 ar  
    19     9    12 1   
    20     9    16 ar  
    21    10    11 ar  
    22    10    24 1   
    23    11    25 1   
    24    13    40 1   
    25    14    15 ar  
    26    14    37 1   
    27    15    35 1   
    28    16    17 ar  
    29    16    36 1   
    30    17    38 1   
    31    18    39 1   
    32    23    38 1   
    33    26    40 1   
    34    27    40 1   
    35    28    40 1   
    36    29    39 1   
    37    30    39 1   
    38    31    39 1   
    39    32    41 1   
    40    33    41 1   
    41    34    41 1   
    42    37    41 1   
@<TRIPOS>SUBSTRUCTURE
     1 VYT         1 TEMP              0 ****  ****    0 ROOT
