@<TRIPOS>MOLECULE
VYT
   41    42     1     0     0
SMALL
No Charge or Current Charge


@<TRIPOS>ATOM
      1 N1          13.7530   -16.5350    16.9450 ne         1 VYT      -0.211400
      2 C7          13.4430   -19.4480    14.6320 ca         1 VYT       0.145100
      3 C8          15.7070   -20.1750    13.9060 c3         1 VYT       0.145400
      4 C9          12.0220   -19.6100    14.5930 ca         1 VYT       0.047100
      5 O1          14.2720   -20.2870    13.9050 os         1 VYT      -0.331600
      6 C1          15.7710   -13.7710    20.4880 ca         1 VYT       0.070100
      7 C5          13.1790   -17.5580    16.1680 ca         1 VYT       0.145400
      8 C6          13.9980   -18.4160    15.4230 ca         1 VYT      -0.190000
      9 C4          14.6160   -15.8150    18.9200 ca         1 VYT       0.076400
     10 C3          16.0140   -15.6660    18.9690 ca         1 VYT      -0.079000
     11 C2          16.5950   -14.6480    19.7480 ca         1 VYT      -0.164000
     12 N           14.0380   -16.8440    18.1390 nf         1 VYT      -0.192400
     13 O           16.2860   -12.7520    21.2720 os         1 VYT      -0.372100
     14 C11         11.2060   -18.7310    15.3480 ca         1 VYT       0.145100
     15 C13         11.7890   -17.7110    16.1290 ca         1 VYT      -0.190000
     16 C14         13.7950   -14.9450    19.6590 ca         1 VYT      -0.071000
     17 C15         14.3690   -13.9280    20.4380 ca         1 VYT       0.102100
     18 O2          11.3540   -20.5880    13.8520 os         1 VYT      -0.337100
     19 H6          16.1480   -20.9450    13.2610 h1         1 VYT       0.044700
     20 H7          16.0230   -19.1940    13.5270 h1         1 VYT       0.044700
     21 H8          16.1090   -20.3110    14.9180 h1         1 VYT       0.044700
     22 H5          15.0710   -18.2620    15.4770 ha         1 VYT       0.137500
     23 H17         14.1670   -12.4560    21.6200 ho         1 VYT       0.480000
     24 H4          16.6490   -16.3410    18.3990 ha         1 VYT       0.136000
     25 H3          17.6770   -14.5580    19.7640 ha         1 VYT       0.120000
     26 H2          17.8900   -11.6620    22.0550 h1         1 VYT       0.046367
     27 H1          18.2130   -13.3900    21.8040 h1         1 VYT       0.046367
     28 H           18.1400   -12.2800    20.4090 h1         1 VYT       0.046367
     29 H9          11.2340   -22.2190    12.5560 h1         1 VYT       0.037033
     30 H10         12.5670   -21.1020    12.2180 h1         1 VYT       0.037033
     31 H11         12.6550   -22.2170    13.6150 h1         1 VYT       0.037033
     32 H12          7.8810   -18.3810    15.8400 h1         1 VYT       0.044700
     33 H14          9.1000   -18.1340    17.1070 h1         1 VYT       0.044700
     34 H13          9.0110   -17.0170    15.7170 h1         1 VYT       0.044700
     35 H15         11.1800   -17.0290    16.7130 ha         1 VYT       0.137500
     36 H16         12.7150   -15.0580    19.6260 ha         1 VYT       0.144000
     37 O3           9.8310   -18.9020    15.2970 os         1 VYT      -0.331600
     38 O4          13.5680   -13.0820    21.1540 oh         1 VYT      -0.533100
     39 C10         11.9910   -21.5760    13.0220 c3         1 VYT       0.149900
     40 C           17.7010   -12.5120    21.3880 c3         1 VYT       0.158900
     41 C12          8.9150   -18.0660    16.0270 c3         1 VYT       0.145400
@<TRIPOS>BOND
     1     1     7 1   
     2     1    12 2   
     3     2     4 ar  
     4     2     5 1   
     5     2     8 ar  
     6     3     5 1   
     7     3    19 1   
     8     3    20 1   
     9     3    21 1   
    10     4    14 ar  
    11     4    18 1   
    12     6    11 ar  
    13     6    13 1   
    14     6    17 ar  
    15     7     8 ar  
    16     7    15 ar  
    17     8    22 1   
    18     9    10 ar  
    19     9    12 1   
    20     9    16 ar  
    21    10    11 ar  
    22    10    24 1   
    23    11    25 1   
    24    13    40 1   
    25    14    15 ar  
    26    14    37 1   
    27    15    35 1   
    28    16    17 ar  
    29    16    36 1   
    30    17    38 1   
    31    18    39 1   
    32    23    38 1   
    33    26    40 1   
    34    27    40 1   
    35    28    40 1   
    36    29    39 1   
    37    30    39 1   
    38    31    39 1   
    39    32    41 1   
    40    33    41 1   
    41    34    41 1   
    42    37    41 1   
@<TRIPOS>SUBSTRUCTURE
     1 VYT         1 TEMP              0 ****  ****    0 ROOT
