@<TRIPOS>MOLECULE
VYU
   34    35     1     0     0
SMALL
abcg2


@<TRIPOS>ATOM
      1 N1          30.7270    13.8440    -7.9330 nh         1 VYU      -0.804400
      2 C7          28.6460    13.0300    -8.9660 ca         1 VYU      -0.146500
      3 C8          27.4280    12.3710    -8.8560 ca         1 VYU      -0.123500
      4 C9          26.9600    11.8980    -7.6290 ca         1 VYU       0.217000
      5 C1          34.6390    15.3560    -8.0880 c3         1 VYU       0.173800
      6 C5          32.4470    15.3610    -7.0400 c6         1 VYU       0.163300
      7 C6          29.4730    13.2380    -7.8480 ca         1 VYU       0.290000
      8 C4          31.2800    14.4390    -6.7150 c6         1 VYU       0.215300
      9 C3          31.1610    14.4750    -9.1670 c6         1 VYU       0.215300
     10 C2          32.6900    14.4990    -9.2740 c6         1 VYU       0.163300
     11 C10         27.7630    12.1220    -6.5090 ca         1 VYU      -0.123500
     12 C11         28.9830    12.7770    -6.6120 ca         1 VYU      -0.146500
     13 N           33.3430    14.6980    -7.9730 n3         1 VYU      -0.724600
     14 C           35.6580    14.5220    -8.8540 c3         1 VYU      -0.090100
     15 H1          28.9370    13.3860    -9.9430 ha         1 VYU       0.109500
     16 H2          26.8240    12.2310    -9.7460 ha         1 VYU       0.108500
     17 H3          25.3230    11.2300    -6.6250 hn         1 VYU       0.427000
     18 H4          25.0880    11.4080    -8.2540 hn         1 VYU       0.427000
     19 H5          35.0070    15.5350    -7.0750 h1         1 VYU       0.027200
     20 H6          34.5360    16.3440    -8.5730 h1         1 VYU       0.027200
     21 H7          32.9880    15.5710    -6.1160 h1         1 VYU       0.037700
     22 H8          32.0830    16.3280    -7.4240 h1         1 VYU       0.037700
     23 H9          30.5110    15.0050    -6.1740 h1         1 VYU       0.040200
     24 H10         31.6330    13.6460    -6.0490 h1         1 VYU       0.040200
     25 H11         30.7550    15.4920    -9.2570 h1         1 VYU       0.040200
     26 H12         30.7880    13.9120   -10.0160 h1         1 VYU       0.040200
     27 H13         33.0420    13.5620    -9.7100 h1         1 VYU       0.037700
     28 H14         32.9600    15.3050    -9.9740 h1         1 VYU       0.037700
     29 H15         27.4280    11.7800    -5.5360 ha         1 VYU       0.108500
     30 H16         29.5640    12.9180    -5.7120 ha         1 VYU       0.109500
     31 H18         36.6270    15.0260    -8.8550 hc         1 VYU       0.038700
     32 H19         35.7800    13.5420    -8.3860 hc         1 VYU       0.038700
     33 H20         35.3610    14.3710    -9.8920 hc         1 VYU       0.038700
     34 N2          25.7590    11.1710    -7.5350 nv         1 VYU      -1.049000
@<TRIPOS>BOND
     1     1     7 1   
     2     1     8 1   
     3     1     9 1   
     4     2     3 ar  
     5     2     7 ar  
     6     2    15 1   
     7     3     4 ar  
     8     3    16 1   
     9     4    11 ar  
    10     4    34 1   
    11     5    13 1   
    12     5    14 1   
    13     5    19 1   
    14     5    20 1   
    15     6     8 1   
    16     6    13 1   
    17     6    21 1   
    18     6    22 1   
    19     7    12 ar  
    20     8    23 1   
    21     8    24 1   
    22     9    10 1   
    23     9    25 1   
    24     9    26 1   
    25    10    13 1   
    26    10    27 1   
    27    10    28 1   
    28    11    12 ar  
    29    11    29 1   
    30    12    30 1   
    31    14    31 1   
    32    14    32 1   
    33    14    33 1   
    34    17    34 1   
    35    18    34 1   
@<TRIPOS>SUBSTRUCTURE
     1 VYU         1 TEMP              0 ****  ****    0 ROOT
