@<TRIPOS>MOLECULE
VYU
   34    35     1     0     0
SMALL
No Charge or Current Charge


@<TRIPOS>ATOM
      1 N1          30.6620    13.7660    -7.8500 nh         1 VYU      -0.804400
      2 C7          28.4310    13.5630    -8.8290 ca         1 VYU      -0.146500
      3 C8          27.1080    13.0840    -8.7870 ca         1 VYU      -0.123500
      4 C9          26.6730    12.3060    -7.7020 ca         1 VYU       0.217000
      5 C1          34.6750    15.5560    -8.1200 c3         1 VYU       0.173800
      6 C5          32.6540    14.9820    -6.8220 c6         1 VYU       0.163300
      7 C6          29.3370    13.2730    -7.7890 ca         1 VYU       0.290000
      8 C4          31.4730    13.9780    -6.6080 c6         1 VYU       0.215300
      9 C3          31.5140    13.4750    -9.0480 c6         1 VYU       0.215300
     10 C2          32.6980    14.4850    -9.2130 c6         1 VYU       0.163300
     11 C10         27.5660    12.0120    -6.6590 ca         1 VYU      -0.123500
     12 C11         28.8890    12.4930    -6.7010 ca         1 VYU      -0.146500
     13 N           33.5350    14.6190    -7.9750 n3         1 VYU      -0.724600
     14 C           35.7310    15.1270    -9.1590 c3         1 VYU      -0.090100
     15 H1          28.7490    14.1740    -9.6680 ha         1 VYU       0.109500
     16 H2          26.4250    13.3210    -9.5980 ha         1 VYU       0.108500
     17 H3          25.0420    11.3370    -6.8420 hn         1 VYU       0.427000
     18 H4          24.7110    12.1090    -8.3760 hn         1 VYU       0.427000
     19 H5          35.1890    15.6480    -7.1530 h1         1 VYU       0.027200
     20 H6          34.3090    16.5580    -8.3850 h1         1 VYU       0.027200
     21 H7          33.2420    15.0260    -5.8930 h1         1 VYU       0.037700
     22 H8          32.2290    15.9860    -6.9760 h1         1 VYU       0.037700
     23 H9          30.8350    14.3660    -5.8000 h1         1 VYU       0.040200
     24 H10         31.8870    13.0170    -6.2670 h1         1 VYU       0.040200
     25 H11         30.9150    13.4970    -9.9690 h1         1 VYU       0.040200
     26 H12         31.9300    12.4600    -8.9610 h1         1 VYU       0.040200
     27 H13         33.3100    14.1460   -10.0600 h1         1 VYU       0.037700
     28 H14         32.2820    15.4640    -9.4910 h1         1 VYU       0.037700
     29 H15         27.2410    11.4100    -5.8150 ha         1 VYU       0.108500
     30 H16         29.5640    12.2430    -5.8880 ha         1 VYU       0.109500
     31 H18         36.5930    15.8020    -9.1190 hc         1 VYU       0.038700
     32 H19         36.0830    14.1090    -8.9550 hc         1 VYU       0.038700
     33 H20         35.3260    15.1620   -10.1770 hc         1 VYU       0.038700
     34 N2          25.3850    11.8390    -7.6600 nv         1 VYU      -1.049000
@<TRIPOS>BOND
     1     1     7 1   
     2     1     8 1   
     3     1     9 1   
     4     2     3 ar  
     5     2     7 ar  
     6     2    15 1   
     7     3     4 ar  
     8     3    16 1   
     9     4    11 ar  
    10     4    34 1   
    11     5    13 1   
    12     5    14 1   
    13     5    19 1   
    14     5    20 1   
    15     6     8 1   
    16     6    13 1   
    17     6    21 1   
    18     6    22 1   
    19     7    12 ar  
    20     8    23 1   
    21     8    24 1   
    22     9    10 1   
    23     9    25 1   
    24     9    26 1   
    25    10    13 1   
    26    10    27 1   
    27    10    28 1   
    28    11    12 ar  
    29    11    29 1   
    30    12    30 1   
    31    14    31 1   
    32    14    32 1   
    33    14    33 1   
    34    17    34 1   
    35    18    34 1   
@<TRIPOS>SUBSTRUCTURE
     1 VYU         1 TEMP              0 ****  ****    0 ROOT
