@<TRIPOS>MOLECULE
VYV
   44    45     1     0     0
SMALL
No Charge or Current Charge


@<TRIPOS>ATOM
      1 C15         -3.6860    14.7630    10.5780 ca         1 VYV      -0.147000
      2 C17         -2.2440    16.3780    11.6940 ca         1 VYV      -0.133000
      3 C01        -10.1570    11.7780     6.7630 ca         1 VYV      -0.317500
      4 C02         -8.9530    12.0220     7.4540 ca         1 VYV      -0.004000
      5 C03         -8.1770    10.9440     7.9120 ca         1 VYV      -0.129500
      6 C04         -8.5920     9.6200     7.6960 ca         1 VYV       0.284000
      7 C05         -9.7830     9.3800     6.9910 ca         1 VYV      -0.129500
      8 C06        -10.5690    10.4500     6.5290 ca         1 VYV      -0.004000
      9 N07         -7.8310     8.5390     8.1280 nu         1 VYV      -0.887100
     10 C08         -6.5100     9.3090    10.4450 c3         1 VYV      -0.347400
     11 C09         -5.1670     9.4010     9.7080 c3         1 VYV       0.152000
     12 N10         -4.2690    10.3310    10.3910 ns         1 VYV      -0.521900
     13 C11         -4.3000    11.6990    10.2520 c          1 VYV       0.662100
     14 O12         -5.0880    12.2610     9.5060 o          1 VYV      -0.634100
     15 N13         -3.3500    12.3300    11.0390 ns         1 VYV      -0.163000
     16 C14         -3.0160    13.7000    11.2250 ca         1 VYV      -0.010000
     17 C16         -3.3000    16.0950    10.8130 ca         1 VYV      -0.083500
     18 C18         -1.5740    15.3290    12.3420 ca         1 VYV      -0.083500
     19 C19         -1.9600    13.9980    12.1070 ca         1 VYV      -0.147000
     20 O21        -11.9730    12.7270     5.0290 o          1 VYV      -0.527500
     21 O22        -10.3760    14.3780     6.1830 o          1 VYV      -0.527500
     22 N23        -12.2100    13.3300     7.4060 n8         1 VYV      -1.001100
     23 S24         -7.5980     8.0940     9.7100 s6         1 VYV       1.170100
     24 O25         -8.9150     8.1890    10.3400 o          1 VYV      -0.531500
     25 O26         -6.9080     6.8070     9.6370 o          1 VYV      -0.531500
     26 H1          -4.5070    14.5810     9.8920 ha         1 VYV       0.123000
     27 H2          -1.9470    17.4090    11.8740 ha         1 VYV       0.117000
     28 H3          -8.6060    13.0400     7.6320 ha         1 VYV       0.142500
     29 H4          -7.2400    11.1470     8.4150 ha         1 VYV       0.141000
     30 H5         -10.1110     8.3620     6.8050 ha         1 VYV       0.141000
     31 H6         -11.4940    10.2410     5.9920 ha         1 VYV       0.142500
     32 H7          -8.0880     7.6540     7.7130 hn         1 VYV       0.498000
     33 H8          -7.0420    10.2640    10.4400 h1         1 VYV       0.109700
     34 H9          -6.3600     8.9840    11.4790 h1         1 VYV       0.109700
     35 H10         -4.6850     8.4130     9.6770 h1         1 VYV       0.076200
     36 H11         -5.3170     9.7320     8.6700 h1         1 VYV       0.076200
     37 H12         -3.5790     9.9500    11.0270 hn         1 VYV       0.313500
     38 H13         -2.7840    11.6990    11.5900 hn         1 VYV       0.146000
     39 H14         -3.8210    16.9070    10.3110 ha         1 VYV       0.114500
     40 H15         -0.7550    15.5470    13.0250 ha         1 VYV       0.114500
     41 H16         -1.4320    13.1940    12.6160 ha         1 VYV       0.123000
     42 H17        -11.7220    12.8720     8.1700 hn         1 VYV       0.478500
     43 H18        -12.0990    14.3220     7.6040 hn         1 VYV       0.478500
     44 S20        -11.1580    13.1440     6.1700 sy         1 VYV       1.145600
@<TRIPOS>BOND
     1     1    16 ar  
     2     1    17 ar  
     3     1    26 1   
     4     2    17 ar  
     5     2    18 ar  
     6     2    27 1   
     7     3     4 ar  
     8     3     8 ar  
     9     3    44 1   
    10     4     5 ar  
    11     4    28 1   
    12     5     6 ar  
    13     5    29 1   
    14     6     7 ar  
    15     6     9 1   
    16     7     8 ar  
    17     7    30 1   
    18     8    31 1   
    19     9    23 1   
    20     9    32 1   
    21    10    11 1   
    22    10    23 1   
    23    10    33 1   
    24    10    34 1   
    25    11    12 1   
    26    11    35 1   
    27    11    36 1   
    28    12    13 1   
    29    12    37 1   
    30    13    14 2   
    31    13    15 1   
    32    15    16 1   
    33    15    38 1   
    34    16    19 ar  
    35    17    39 1   
    36    18    19 ar  
    37    18    40 1   
    38    19    41 1   
    39    20    44 2   
    40    21    44 2   
    41    22    42 1   
    42    22    43 1   
    43    22    44 1   
    44    23    24 2   
    45    23    25 2   
@<TRIPOS>SUBSTRUCTURE
     1 VYV         1 TEMP              0 ****  ****    0 ROOT
