@<TRIPOS>MOLECULE
VYV
   44    45     1     0     0
SMALL
bcc


@<TRIPOS>ATOM
      1 C15         -4.0790    14.4830    10.5430 ca         1 VYV      -0.165000
      2 C17         -2.6280    16.3060    11.1990 ca         1 VYV      -0.151000
      3 C01         -9.9390    11.9450     6.8600 ca         1 VYV      -0.317500
      4 C02         -8.7010    12.1930     7.4360 ca         1 VYV      -0.022000
      5 C03         -7.8870    11.1260     7.7790 ca         1 VYV      -0.147500
      6 C04         -8.3220     9.8230     7.5650 ca         1 VYV       0.145600
      7 C05         -9.5620     9.5870     6.9810 ca         1 VYV      -0.147500
      8 C06        -10.3710    10.6480     6.6150 ca         1 VYV      -0.022000
      9 N07         -7.4780     8.7450     7.9360 nu         1 VYV      -0.693500
     10 C08         -6.5650     9.2630    10.4310 c3         1 VYV      -0.236600
     11 C09         -5.0960     9.1880    10.0210 c3         1 VYV       0.152000
     12 N10         -4.2970    10.1250    10.7650 ns         1 VYV      -0.588900
     13 C11         -4.2560    11.4410    10.4320 c          1 VYV       0.796100
     14 O12         -4.8220    11.8880     9.4450 o          1 VYV      -0.634100
     15 N13         -3.5110    12.2030    11.2920 ns         1 VYV      -0.489100
     16 C14         -3.2540    13.5730    11.2070 ca         1 VYV       0.082600
     17 C16         -3.7550    15.8330    10.5430 ca         1 VYV      -0.101500
     18 C18         -1.8150    15.4010    11.8700 ca         1 VYV      -0.101500
     19 C19         -2.1210    14.0500    11.8710 ca         1 VYV      -0.165000
     20 O21        -11.9450    12.8510     5.4490 o          1 VYV      -0.598300
     21 O22        -10.1620    14.4670     6.1970 o          1 VYV      -0.598300
     22 N23        -11.8780    13.6610     7.7940 n8         1 VYV      -0.890700
     23 S24         -7.6070     8.1560     9.5020 s6         1 VYV       1.200900
     24 O25         -8.9680     8.3010     9.9930 o          1 VYV      -0.602300
     25 O26         -7.0000     6.8350     9.4650 o          1 VYV      -0.602300
     26 H1          -4.9720    14.1540    10.0360 ha         1 VYV       0.141000
     27 H2          -2.3880    17.3600    11.1920 ha         1 VYV       0.135000
     28 H3          -8.3550    13.2040     7.6040 ha         1 VYV       0.160500
     29 H4          -6.9050    11.3130     8.1970 ha         1 VYV       0.159000
     30 H5          -9.8950     8.5730     6.8050 ha         1 VYV       0.159000
     31 H6         -11.3300    10.4550     6.1550 ha         1 VYV       0.160500
     32 H7          -7.4770     7.9680     7.2810 hn         1 VYV       0.442800
     33 H8          -6.9750    10.2670    10.3100 h1         1 VYV       0.109700
     34 H9          -6.7020     8.9700    11.4740 h1         1 VYV       0.109700
     35 H10         -4.7070     8.1910    10.2180 h1         1 VYV       0.076200
     36 H11         -4.9870     9.3780     8.9540 h1         1 VYV       0.076200
     37 H12         -3.9260     9.8160    11.6490 hn         1 VYV       0.313500
     38 H13         -2.9740    11.7130    11.9920 hn         1 VYV       0.312500
     39 H14         -4.4070    16.5240    10.0220 ha         1 VYV       0.132500
     40 H15         -0.9310    15.7440    12.3920 ha         1 VYV       0.132500
     41 H16         -1.4740    13.3550    12.3940 ha         1 VYV       0.141000
     42 H17        -12.4980    12.9150     8.0920 hn         1 VYV       0.423300
     43 H18        -11.3280    14.0160     8.5670 hn         1 VYV       0.423300
     44 S20        -11.0000    13.3080     6.4530 sy         1 VYV       1.287200
@<TRIPOS>BOND
     1     1    16 ar  
     2     1    17 ar  
     3     1    26 1   
     4     2    17 ar  
     5     2    18 ar  
     6     2    27 1   
     7     3     4 ar  
     8     3     8 ar  
     9     3    44 1   
    10     4     5 ar  
    11     4    28 1   
    12     5     6 ar  
    13     5    29 1   
    14     6     7 ar  
    15     6     9 1   
    16     7     8 ar  
    17     7    30 1   
    18     8    31 1   
    19     9    23 1   
    20     9    32 1   
    21    10    11 1   
    22    10    23 1   
    23    10    33 1   
    24    10    34 1   
    25    11    12 1   
    26    11    35 1   
    27    11    36 1   
    28    12    13 1   
    29    12    37 1   
    30    13    14 2   
    31    13    15 1   
    32    15    16 1   
    33    15    38 1   
    34    16    19 ar  
    35    17    39 1   
    36    18    19 ar  
    37    18    40 1   
    38    19    41 1   
    39    20    44 2   
    40    21    44 2   
    41    22    42 1   
    42    22    43 1   
    43    22    44 1   
    44    23    24 2   
    45    23    25 2   
@<TRIPOS>SUBSTRUCTURE
     1 VYV         1 TEMP              0 ****  ****    0 ROOT
