@<TRIPOS>MOLECULE
VYW
   49    52     1     0     0
SMALL
No Charge or Current Charge


@<TRIPOS>ATOM
      1 N1         155.6110   176.9880   135.2760 ns         1 VYW      -0.132000
      2 N3         156.4210   176.7310   132.6860 nc         1 VYW      -0.424300
      3 C4         154.4800   177.3870   138.8720 ca         1 VYW      -0.120600
      4 C5         155.5350   178.2060   139.3430 ca         1 VYW      -0.115000
      5 C6         156.5700   178.5980   138.4810 ca         1 VYW      -0.090000
      6 C7         156.5710   178.1820   137.1420 ca         1 VYW      -0.144000
      7 C8         155.5390   177.3680   136.6460 ca         1 VYW      -0.027000
      8 C10        155.3000   176.0840   133.0490 cd         1 VYW       0.284600
      9 C13        156.2870   175.8950   130.3370 c          1 VYW       0.530200
     10 C15        159.3960   176.5360   131.3080 ca         1 VYW      -0.103300
     11 C17        161.1990   175.1760   130.3810 ca         1 VYW      -0.106500
     12 C20        159.9170   176.3260   132.6000 ca         1 VYW      -0.095000
     13 C21        154.4970   176.9760   137.5170 ca         1 VYW      -0.084000
     14 O2         156.7250   175.8330   129.1960 o          1 VYW      -0.518000
     15 C12        155.0660   175.2050   130.7710 cc         1 VYW      -0.271200
     16 C11        154.5830   175.2870   132.0700 cd         1 VYW      -0.192600
     17 N2         156.8890   176.6350   131.3820 n          1 VYW      -0.120800
     18 C14        158.1400   177.3790   131.1150 c3         1 VYW       0.156300
     19 C19        161.0720   175.5460   132.7820 ca         1 VYW      -0.106500
     20 C18        161.7140   174.9710   131.6720 ca         1 VYW      -0.103000
     21 C16        160.0440   175.9550   130.1990 ca         1 VYW      -0.095000
     22 C9         154.8000   176.1900   134.4700 c          1 VYW       0.544800
     23 O1         153.7840   175.6260   134.8740 o          1 VYW      -0.568100
     24 O          152.4230   176.2380   139.3630 o          1 VYW      -0.585100
     25 N          153.3820   177.3670   141.0820 ns         1 VYW      -0.485900
     26 C1         152.3900   177.0500   142.0740 cx         1 VYW       0.049700
     27 C3         152.4270   177.8200   143.3710 cx         1 VYW      -0.133900
     28 C2         151.3340   178.0870   142.3650 cx         1 VYW      -0.133900
     29 H1         156.4100   177.3730   134.7870 hn         1 VYW       0.173000
     30 H2         155.5690   178.5500   140.3740 ha         1 VYW       0.116000
     31 H3         157.3760   179.2280   138.8540 ha         1 VYW       0.118000
     32 H4         157.3820   178.4960   136.4880 ha         1 VYW       0.115000
     33 H5         161.6950   174.7300   129.5210 ha         1 VYW       0.115500
     34 H6         159.4230   176.7650   133.4650 ha         1 VYW       0.113000
     35 H7         153.6860   176.3500   137.1570 ha         1 VYW       0.168000
     36 H8         154.5660   174.6230   130.0040 ha         1 VYW       0.221000
     37 H9         153.6750   174.7630   132.3610 ha         1 VYW       0.225000
     38 H10        158.1860   178.2470   131.7850 h1         1 VYW       0.078200
     39 H11        158.1140   177.7770   130.0930 h1         1 VYW       0.078200
     40 H12        161.4690   175.3870   133.7820 ha         1 VYW       0.115500
     41 H13        162.6090   174.3680   131.8130 ha         1 VYW       0.115000
     42 H14        159.6510   176.1060   129.1950 ha         1 VYW       0.113000
     43 H15        154.1740   177.9390   141.3430 hn         1 VYW       0.318500
     44 H16        152.1040   175.9970   142.1100 h1         1 VYW       0.089700
     45 H17        152.1600   177.2870   144.2800 hc         1 VYW       0.078200
     46 H18        153.1950   178.5790   143.4980 hc         1 VYW       0.078200
     47 H19        151.3700   179.0220   141.8100 hc         1 VYW       0.078200
     48 H20        150.3320   177.7330   142.5970 hc         1 VYW       0.078200
     49 C          153.3400   176.9410   139.7700 c          1 VYW       0.608700
@<TRIPOS>BOND
     1     1     7 1   
     2     1    22 1   
     3     1    29 1   
     4     2     8 2   
     5     2    17 1   
     6     3     4 ar  
     7     3    13 ar  
     8     3    49 1   
     9     4     5 ar  
    10     4    30 1   
    11     5     6 ar  
    12     5    31 1   
    13     6     7 ar  
    14     6    32 1   
    15     7    13 ar  
    16     8    16 1   
    17     8    22 1   
    18     9    14 2   
    19     9    15 1   
    20     9    17 1   
    21    10    12 ar  
    22    10    18 1   
    23    10    21 ar  
    24    11    20 ar  
    25    11    21 ar  
    26    11    33 1   
    27    12    19 ar  
    28    12    34 1   
    29    13    35 1   
    30    15    16 2   
    31    15    36 1   
    32    16    37 1   
    33    17    18 1   
    34    18    38 1   
    35    18    39 1   
    36    19    20 ar  
    37    19    40 1   
    38    20    41 1   
    39    21    42 1   
    40    22    23 2   
    41    24    49 2   
    42    25    26 1   
    43    25    43 1   
    44    25    49 1   
    45    26    27 1   
    46    26    28 1   
    47    26    44 1   
    48    27    28 1   
    49    27    45 1   
    50    27    46 1   
    51    28    47 1   
    52    28    48 1   
@<TRIPOS>SUBSTRUCTURE
     1 VYW         1 TEMP              0 ****  ****    0 ROOT
