@<TRIPOS>MOLECULE
VYW
   49    52     1     0     0
SMALL
abcg2


@<TRIPOS>ATOM
      1 N1         155.7020   177.0740   135.3780 ns         1 VYW      -0.132000
      2 N3         156.4190   176.6260   132.8560 nc         1 VYW      -0.424300
      3 C4         154.4320   177.7090   138.8190 ca         1 VYW      -0.120600
      4 C5         155.4480   178.5320   139.3040 ca         1 VYW      -0.115000
      5 C6         156.5190   178.8560   138.4780 ca         1 VYW      -0.090000
      6 C7         156.5860   178.3580   137.1880 ca         1 VYW      -0.144000
      7 C8         155.5700   177.5280   136.6980 ca         1 VYW      -0.027000
      8 C10        155.3970   175.9420   133.2870 cd         1 VYW       0.284600
      9 C13        156.3010   175.5240   130.7040 c          1 VYW       0.530200
     10 C15        159.3000   176.4490   131.2500 ca         1 VYW      -0.103300
     11 C17        161.5370   176.1070   130.3990 ca         1 VYW      -0.106500
     12 C20        159.5170   175.4420   132.1880 ca         1 VYW      -0.095000
     13 C21        154.4880   177.2100   137.5180 ca         1 VYW      -0.084000
     14 O2         156.7940   175.3990   129.5840 o          1 VYW      -0.518000
     15 C12        155.1620   174.7970   131.2080 cc         1 VYW      -0.271200
     16 C11        154.7180   174.9980   132.4690 cd         1 VYW      -0.192600
     17 N2         156.8450   176.4410   131.6160 n          1 VYW      -0.120800
     18 C14        158.0070   177.2310   131.2100 c3         1 VYW       0.156300
     19 C19        160.7330   174.7670   132.2280 ca         1 VYW      -0.106500
     20 C18        161.7480   175.1000   131.3360 ca         1 VYW      -0.103000
     21 C16        160.3180   176.7740   130.3550 ca         1 VYW      -0.095000
     22 C9         154.9440   176.1810   134.6970 c          1 VYW       0.544800
     23 O1         153.9670   175.5880   135.1410 o          1 VYW      -0.568100
     24 O          152.1210   177.1940   139.1210 o          1 VYW      -0.585100
     25 N          153.4260   177.2670   140.9730 ns         1 VYW      -0.485900
     26 C1         152.3720   177.0040   141.9070 cx         1 VYW       0.049700
     27 C3         152.4340   177.7040   143.2310 cx         1 VYW      -0.133900
     28 C2         151.3940   178.1000   142.2160 cx         1 VYW      -0.133900
     29 H1         156.4750   177.4570   134.8500 hn         1 VYW       0.173000
     30 H2         155.3940   178.9470   140.3010 ha         1 VYW       0.116000
     31 H3         157.3040   179.5080   138.8400 ha         1 VYW       0.118000
     32 H4         157.4250   178.6010   136.5470 ha         1 VYW       0.115000
     33 H5         162.3180   176.3690   129.6960 ha         1 VYW       0.115500
     34 H6         158.7370   175.1730   132.8890 ha         1 VYW       0.113000
     35 H7         153.6920   176.5850   137.1510 ha         1 VYW       0.168000
     36 H8         154.6940   174.0910   130.5360 ha         1 VYW       0.221000
     37 H9         153.8680   174.4650   132.8710 ha         1 VYW       0.225000
     38 H10        158.0460   178.0830   131.8880 h1         1 VYW       0.078200
     39 H11        157.8220   177.5960   130.2020 h1         1 VYW       0.078200
     40 H12        160.8900   173.9870   132.9620 ha         1 VYW       0.115500
     41 H13        162.6940   174.5730   131.3640 ha         1 VYW       0.115000
     42 H14        160.1520   177.5490   129.6160 ha         1 VYW       0.113000
     43 H15        154.3730   177.2730   141.3190 hn         1 VYW       0.318500
     44 H16        151.9920   175.9870   141.8950 h1         1 VYW       0.089700
     45 H17        152.1200   177.1530   144.1070 hc         1 VYW       0.078200
     46 H18        153.2630   178.3820   143.3880 hc         1 VYW       0.078200
     47 H19        151.5340   179.0380   141.6960 hc         1 VYW       0.078200
     48 H20        150.3650   177.8180   142.3910 hc         1 VYW       0.078200
     49 C          153.2240   177.3670   139.6410 c          1 VYW       0.608700
@<TRIPOS>BOND
     1     1     7 1   
     2     1    22 1   
     3     1    29 1   
     4     2     8 2   
     5     2    17 1   
     6     3     4 ar  
     7     3    13 ar  
     8     3    49 1   
     9     4     5 ar  
    10     4    30 1   
    11     5     6 ar  
    12     5    31 1   
    13     6     7 ar  
    14     6    32 1   
    15     7    13 ar  
    16     8    16 1   
    17     8    22 1   
    18     9    14 2   
    19     9    15 1   
    20     9    17 1   
    21    10    12 ar  
    22    10    18 1   
    23    10    21 ar  
    24    11    20 ar  
    25    11    21 ar  
    26    11    33 1   
    27    12    19 ar  
    28    12    34 1   
    29    13    35 1   
    30    15    16 2   
    31    15    36 1   
    32    16    37 1   
    33    17    18 1   
    34    18    38 1   
    35    18    39 1   
    36    19    20 ar  
    37    19    40 1   
    38    20    41 1   
    39    21    42 1   
    40    22    23 2   
    41    24    49 2   
    42    25    26 1   
    43    25    43 1   
    44    25    49 1   
    45    26    27 1   
    46    26    28 1   
    47    26    44 1   
    48    27    28 1   
    49    27    45 1   
    50    27    46 1   
    51    28    47 1   
    52    28    48 1   
@<TRIPOS>SUBSTRUCTURE
     1 VYW         1 TEMP              0 ****  ****    0 ROOT
