@<TRIPOS>MOLECULE
VYY
   47    48     1     0     0
SMALL
bcc


@<TRIPOS>ATOM
      1 N12         -4.1180     8.6340    78.6490 ns         1 VYY      -0.488100
      2 C15         -5.4870    10.6640    78.3600 ca         1 VYY      -0.158500
      3 C17         -6.7410    10.9580    76.2950 ca         1 VYY      -0.096300
      4 C20         -7.7070    11.7470    75.4590 c3         1 VYY      -0.042800
      5 C01         -1.6940     3.2830    84.7660 ca         1 VYY      -0.311500
      6 C02         -2.5700     4.3240    85.0230 ca         1 VYY       0.013500
      7 C03         -2.1760     5.6350    84.8110 ca         1 VYY      -0.210000
      8 C04         -0.8980     5.9060    84.3250 ca         1 VYY       0.234600
      9 C05         -0.0210     4.8440    84.0690 ca         1 VYY      -0.210000
     10 C06         -0.4120     3.5430    84.2930 ca         1 VYY       0.013500
     11 N07         -0.4230     7.1890    84.0800 nu         1 VYY      -0.735500
     12 C08         -2.3850     8.3700    82.5830 c3         1 VYY      -0.267600
     13 C09         -1.6290     8.2060    81.2630 c3         1 VYY       0.155000
     14 N10         -2.5320     7.9970    80.1640 ns         1 VYY      -0.590900
     15 C11         -3.2480     9.0230    79.6320 c          1 VYY       0.792100
     16 O13         -3.1070    10.1800    80.0010 o          1 VYY      -0.616100
     17 C14         -4.9650     9.4550    77.8990 ca         1 VYY       0.076600
     18 C16         -6.3530    11.3940    77.5580 ca         1 VYY      -0.103000
     19 C18         -6.2200     9.7450    75.8520 ca         1 VYY      -0.103000
     20 C19         -5.3450     9.0080    76.6330 ca         1 VYY      -0.158500
     21 O22         -1.0890     0.9110    85.7410 o          1 VYY      -0.611800
     22 O23         -3.4830     1.6310    85.7080 o          1 VYY      -0.611800
     23 N24         -2.2120     1.0100    83.5320 n8         1 VYY      -0.895700
     24 S25         -1.2950     8.5980    83.9770 s6         1 VYY       1.250900
     25 O26         -0.3060     9.6100    83.6490 o          1 VYY      -0.584800
     26 O27         -2.1050     8.7430    85.1730 o          1 VYY      -0.584800
     27 H1          -4.0370     7.6870    78.3140 hn         1 VYY       0.310500
     28 H2          -5.2340    11.0410    79.3380 ha         1 VYY       0.141500
     29 H3          -8.7410    11.4890    75.7010 hc         1 VYY       0.041700
     30 H4          -7.5970    12.8180    75.6240 hc         1 VYY       0.041700
     31 H5          -7.5670    11.5540    74.3960 hc         1 VYY       0.041700
     32 H6          -3.5660     4.1320    85.3980 ha         1 VYY       0.159000
     33 H7          -2.8740     6.4230    85.0500 ha         1 VYY       0.150000
     34 H8           0.9740     5.0450    83.6930 ha         1 VYY       0.150000
     35 H9           0.2830     2.7400    84.0900 ha         1 VYY       0.159000
     36 H10          0.5230     7.2700    83.7280 hn         1 VYY       0.461800
     37 H11         -3.0180     9.2590    82.5720 h1         1 VYY       0.116700
     38 H12         -3.0200     7.5070    82.7890 h1         1 VYY       0.116700
     39 H13         -0.9690     7.3410    81.3080 h1         1 VYY       0.066200
     40 H14         -1.0070     9.0790    81.0770 h1         1 VYY       0.066200
     41 H15         -2.7680     7.0450    79.9340 hn         1 VYY       0.310500
     42 H16         -6.7410    12.3320    77.9390 ha         1 VYY       0.130500
     43 H17         -6.4920     9.3670    74.8730 ha         1 VYY       0.130500
     44 H18         -4.9490     8.0730    76.2530 ha         1 VYY       0.141500
     45 H19         -2.1930    -0.0060    83.5310 hn         1 VYY       0.417300
     46 H20         -3.0060     1.3470    82.9990 hn         1 VYY       0.417300
     47 S21         -2.1730     1.6140    85.0690 sy         1 VYY       1.274200
@<TRIPOS>BOND
     1     1    15 1   
     2     1    17 1   
     3     1    27 1   
     4     2    17 ar  
     5     2    18 ar  
     6     2    28 1   
     7     3     4 1   
     8     3    18 ar  
     9     3    19 ar  
    10     4    29 1   
    11     4    30 1   
    12     4    31 1   
    13     5     6 ar  
    14     5    10 ar  
    15     5    47 1   
    16     6     7 ar  
    17     6    32 1   
    18     7     8 ar  
    19     7    33 1   
    20     8     9 ar  
    21     8    11 1   
    22     9    10 ar  
    23     9    34 1   
    24    10    35 1   
    25    11    24 1   
    26    11    36 1   
    27    12    13 1   
    28    12    24 1   
    29    12    37 1   
    30    12    38 1   
    31    13    14 1   
    32    13    39 1   
    33    13    40 1   
    34    14    15 1   
    35    14    41 1   
    36    15    16 2   
    37    17    20 ar  
    38    18    42 1   
    39    19    20 ar  
    40    19    43 1   
    41    20    44 1   
    42    21    47 2   
    43    22    47 2   
    44    23    45 1   
    45    23    46 1   
    46    23    47 1   
    47    24    25 2   
    48    24    26 2   
@<TRIPOS>SUBSTRUCTURE
     1 VYY         1 TEMP              0 ****  ****    0 ROOT
