@<TRIPOS>MOLECULE
VYY
   47    48     1     0     0
SMALL
No Charge or Current Charge


@<TRIPOS>ATOM
      1 N12         -4.1220     8.7550    78.9150 ns         1 VYY      -0.162000
      2 C15         -5.0710    10.8700    77.9810 ca         1 VYY      -0.140500
      3 C17         -6.6980    10.7340    76.1660 ca         1 VYY      -0.096300
      4 C20         -7.6300    11.4170    75.1760 c3         1 VYY      -0.042800
      5 C01         -1.6280     3.2810    84.4640 ca         1 VYY      -0.311500
      6 C02         -2.5080     4.2810    84.9180 ca         1 VYY       0.031500
      7 C03         -2.1080     5.6280    84.8990 ca         1 VYY      -0.192000
      8 C04         -0.8350     5.9870    84.4240 ca         1 VYY       0.373000
      9 C05          0.0380     4.9850    83.9780 ca         1 VYY      -0.192000
     10 C06         -0.3500     3.6350    83.9920 ca         1 VYY       0.031500
     11 N07         -0.3910     7.3010    84.3810 nu         1 VYY      -0.929100
     12 C08         -2.3850     8.5180    82.9480 c3         1 VYY      -0.378400
     13 C09         -1.6590     8.2670    81.6200 c3         1 VYY       0.155000
     14 N10         -2.6230     8.1290    80.5330 ns         1 VYY      -0.523900
     15 C11         -3.2350     9.1800    79.8910 c          1 VYY       0.658100
     16 O13         -2.9960    10.3460    80.1720 o          1 VYY      -0.616100
     17 C14         -4.9680     9.4620    78.0150 ca         1 VYY      -0.016000
     18 C16         -5.9300    11.4980    77.0630 ca         1 VYY      -0.085000
     19 C18         -6.6010     9.3320    76.1990 ca         1 VYY      -0.085000
     20 C19         -5.7420     8.7030    77.1170 ca         1 VYY      -0.140500
     21 O22         -0.9710     0.6760    84.4440 o          1 VYY      -0.541000
     22 O23         -3.2400     1.3540    85.4160 o          1 VYY      -0.541000
     23 N24         -2.8180     1.3680    83.0220 n8         1 VYY      -1.006100
     24 S25         -1.2570     8.7110    84.3200 s6         1 VYY       1.220100
     25 O26         -0.2690     9.7360    83.9860 o          1 VYY      -0.514000
     26 O27         -2.0140     8.7880    85.5710 o          1 VYY      -0.514000
     27 H1          -4.1850     7.7500    78.8220 hn         1 VYY       0.144000
     28 H2          -4.4970    11.4960    78.6560 ha         1 VYY       0.123500
     29 H3          -8.6270    11.5560    75.6100 hc         1 VYY       0.041700
     30 H4          -7.2510    12.4040    74.8840 hc         1 VYY       0.041700
     31 H5          -7.7430    10.8250    74.2590 hc         1 VYY       0.041700
     32 H6          -3.5000     4.0220    85.2880 ha         1 VYY       0.141000
     33 H7          -2.7990     6.3770    85.2660 ha         1 VYY       0.132000
     34 H8           1.0270     5.2490    83.6140 ha         1 VYY       0.132000
     35 H9           0.3430     2.8730    83.6370 ha         1 VYY       0.141000
     36 H10          0.5040     7.4960    83.9560 hn         1 VYY       0.517000
     37 H11         -2.9620     9.4460    82.9050 h1         1 VYY       0.116700
     38 H12         -3.0450     7.6840    83.1980 h1         1 VYY       0.116700
     39 H13         -1.0660     7.3440    81.6790 h1         1 VYY       0.066200
     40 H14         -0.9740     9.0970    81.3930 h1         1 VYY       0.066200
     41 H15         -2.8760     7.1950    80.2320 hn         1 VYY       0.310500
     42 H16         -6.0000    12.5840    77.0500 ha         1 VYY       0.112500
     43 H17         -7.1920     8.7270    75.5150 ha         1 VYY       0.112500
     44 H18         -5.6800     7.6170    77.1280 ha         1 VYY       0.123500
     45 H19         -2.3130     0.5500    82.6900 hn         1 VYY       0.472500
     46 H20         -3.7140     0.9690    83.2910 hn         1 VYY       0.472500
     47 S21         -2.1320     1.5620    84.4870 sy         1 VYY       1.132600
@<TRIPOS>BOND
     1     1    15 1   
     2     1    17 1   
     3     1    27 1   
     4     2    17 ar  
     5     2    18 ar  
     6     2    28 1   
     7     3     4 1   
     8     3    18 ar  
     9     3    19 ar  
    10     4    29 1   
    11     4    30 1   
    12     4    31 1   
    13     5     6 ar  
    14     5    10 ar  
    15     5    47 1   
    16     6     7 ar  
    17     6    32 1   
    18     7     8 ar  
    19     7    33 1   
    20     8     9 ar  
    21     8    11 1   
    22     9    10 ar  
    23     9    34 1   
    24    10    35 1   
    25    11    24 1   
    26    11    36 1   
    27    12    13 1   
    28    12    24 1   
    29    12    37 1   
    30    12    38 1   
    31    13    14 1   
    32    13    39 1   
    33    13    40 1   
    34    14    15 1   
    35    14    41 1   
    36    15    16 2   
    37    17    20 ar  
    38    18    42 1   
    39    19    20 ar  
    40    19    43 1   
    41    20    44 1   
    42    21    47 2   
    43    22    47 2   
    44    23    45 1   
    45    23    46 1   
    46    23    47 1   
    47    24    25 2   
    48    24    26 2   
@<TRIPOS>SUBSTRUCTURE
     1 VYY         1 TEMP              0 ****  ****    0 ROOT
