@<TRIPOS>MOLECULE
VYZ
   21    21     1     0     0
SMALL
abcg2


@<TRIPOS>ATOM
      1 N1          10.8850     1.0340   -12.8110 no         1 VYZ       0.679200
      2 C7           9.9320    -0.1020    -9.3960 ca         1 VYZ      -0.172500
      3 O1          10.8710    -0.0480   -13.3940 o          1 VYZ      -0.402500
      4 C1           9.2550     0.2540    -6.4450 c          1 VYZ       0.607100
      5 C5          10.5550     1.0650   -11.3990 ca         1 VYZ      -0.211200
      6 C6          10.2430    -0.1210   -10.7430 ca         1 VYZ      -0.010500
      7 C4          10.5590     2.2820   -10.7220 ca         1 VYZ      -0.010500
      8 C3          10.2500     2.3020    -9.3790 ca         1 VYZ      -0.172500
      9 C2           9.9340     1.1140    -8.6950 ca         1 VYZ       0.032000
     10 O2          11.1670     2.0910   -13.3700 o          1 VYZ      -0.402500
     11 N            9.6430     1.2240    -7.3410 ns         1 VYZ      -0.154000
     12 O            9.1100    -0.9210    -6.7480 o          1 VYZ      -0.561100
     13 C            9.0270     0.7760    -5.0480 c3         1 VYZ      -0.179100
     14 H1           9.6920    -1.0170    -8.8830 ha         1 VYZ       0.143000
     15 H2          10.2470    -1.0540   -11.2850 ha         1 VYZ       0.153000
     16 H3          10.8030     3.1950   -11.2440 ha         1 VYZ       0.153000
     17 H4          10.2500     3.2420    -8.8420 ha         1 VYZ       0.143000
     18 H5           9.7140     2.1600    -6.9650 hn         1 VYZ       0.154000
     19 H6           8.6780    -0.0350    -4.4160 hc         1 VYZ       0.070033
     20 H7           9.9560     1.1820    -4.6420 hc         1 VYZ       0.070033
     21 H8           8.2890     1.5810    -5.0570 hc         1 VYZ       0.070033
@<TRIPOS>BOND
     1     1     3 1   
     2     1     5 1   
     3     1    10 1   
     4     2     6 ar  
     5     2     9 ar  
     6     2    14 1   
     7     4    11 1   
     8     4    12 2   
     9     4    13 1   
    10     5     6 ar  
    11     5     7 ar  
    12     6    15 1   
    13     7     8 ar  
    14     7    16 1   
    15     8     9 ar  
    16     8    17 1   
    17     9    11 1   
    18    11    18 1   
    19    13    19 1   
    20    13    20 1   
    21    13    21 1   
@<TRIPOS>SUBSTRUCTURE
     1 VYZ         1 TEMP              0 ****  ****    0 ROOT
