@<TRIPOS>MOLECULE
VYZ
   21    21     1     0     0
SMALL
No Charge or Current Charge


@<TRIPOS>ATOM
      1 N1          10.9160     1.0630   -12.9190 no         1 VYZ       0.679200
      2 C7           9.9180    -0.1180    -9.4270 ca         1 VYZ      -0.172500
      3 O1          10.8940    -0.0190   -13.5190 o          1 VYZ      -0.402500
      4 C1           9.2510     0.2200    -6.3710 c          1 VYZ       0.607100
      5 C5          10.5740     1.0720   -11.4610 ca         1 VYZ      -0.211200
      6 C6          10.2380    -0.1280   -10.7960 ca         1 VYZ      -0.010500
      7 C4          10.5840     2.2800   -10.7300 ca         1 VYZ      -0.010500
      8 C3          10.2620     2.2800    -9.3610 ca         1 VYZ      -0.172500
      9 C2           9.9270     1.0880    -8.6950 ca         1 VYZ       0.032000
     10 O2          11.2040     2.1390   -13.4590 o          1 VYZ      -0.402500
     11 N            9.6150     1.1750    -7.3110 ns         1 VYZ      -0.154000
     12 O            9.1270    -0.9760    -6.6040 o          1 VYZ      -0.561100
     13 C            9.0070     0.7840    -4.9750 c3         1 VYZ      -0.179100
     14 H1           9.6660    -1.0630    -8.9570 ha         1 VYZ       0.143000
     15 H2          10.2220    -1.0770   -11.3320 ha         1 VYZ       0.153000
     16 H3          10.8380     3.2230   -11.2110 ha         1 VYZ       0.153000
     17 H4          10.2750     3.2220    -8.8160 ha         1 VYZ       0.143000
     18 H5           9.6680     2.1150    -6.9410 hn         1 VYZ       0.154000
     19 H6           8.7220     0.0120    -4.2520 hc         1 VYZ       0.070033
     20 H7           9.8990     1.3330    -4.6520 hc         1 VYZ       0.070033
     21 H8           8.2550     1.5790    -5.0380 hc         1 VYZ       0.070033
@<TRIPOS>BOND
     1     1     3 1   
     2     1     5 1   
     3     1    10 1   
     4     2     6 ar  
     5     2     9 ar  
     6     2    14 1   
     7     4    11 1   
     8     4    12 2   
     9     4    13 1   
    10     5     6 ar  
    11     5     7 ar  
    12     6    15 1   
    13     7     8 ar  
    14     7    16 1   
    15     8     9 ar  
    16     8    17 1   
    17     9    11 1   
    18    11    18 1   
    19    13    19 1   
    20    13    20 1   
    21    13    21 1   
@<TRIPOS>SUBSTRUCTURE
     1 VYZ         1 TEMP              0 ****  ****    0 ROOT
