@<TRIPOS>MOLECULE
VZ1
   50    51     1     0     0
SMALL
No Charge or Current Charge


@<TRIPOS>ATOM
      1 C15         -9.1210     9.3990     9.0690 ca         1 VZ1      -0.157500
      2 C17         -8.8400     9.5870     6.6650 ca         1 VZ1      -0.139000
      3 C20         -6.5460     9.4420     5.5890 c3         1 VZ1      -0.048800
      4 C21        -11.1830     9.7460     7.6290 c3         1 VZ1      -0.048800
      5 C01         -5.1660     1.8050    14.5960 ca         1 VZ1      -0.308500
      6 C02         -4.0610     1.7480    13.7260 ca         1 VZ1       0.029000
      7 C03         -3.2360     2.8750    13.5710 ca         1 VZ1      -0.186000
      8 C04         -3.5010     4.0610    14.2700 ca         1 VZ1       0.362000
      9 C05         -4.6010     4.1090    15.1440 ca         1 VZ1      -0.186000
     10 C06         -5.4340     2.9890    15.3090 ca         1 VZ1       0.029000
     11 N07         -2.6460     5.1380    14.0740 nu         1 VZ1      -0.909100
     12 C08         -4.3930     7.0630    13.2430 c3         1 VZ1      -0.381400
     13 C09         -4.7820     8.5460    13.2590 c3         1 VZ1       0.154000
     14 N10         -5.9740     8.7660    12.4450 ns         1 VZ1      -0.521900
     15 C11         -5.9720     8.8960    11.0750 c          1 VZ1       0.660100
     16 O12         -4.9410     8.8650    10.4180 o          1 VZ1      -0.618100
     17 N13         -7.2480     9.0670    10.5620 ns         1 VZ1      -0.161000
     18 C14         -7.7330     9.2390     9.2360 ca         1 VZ1      -0.001000
     19 C16         -9.6800     9.5760     7.7910 ca         1 VZ1      -0.042800
     20 C18         -7.4510     9.4250     6.8110 ca         1 VZ1      -0.042800
     21 C19         -6.9020     9.2540     8.0950 ca         1 VZ1      -0.157500
     22 S22         -2.9440     6.7570    14.2390 s6         1 VZ1       1.211100
     23 O23         -3.2560     6.9870    15.6510 o          1 VZ1      -0.515500
     24 O24         -1.7940     7.4120    13.6160 o          1 VZ1      -0.515500
     25 O26         -5.4720    -0.8560    14.4990 o          1 VZ1      -0.541500
     26 O27         -7.0520     0.5220    15.9860 o          1 VZ1      -0.541500
     27 N28         -7.2620     0.5480    13.5550 n8         1 VZ1      -1.003100
     28 H1          -9.7730     9.3860     9.9410 ha         1 VZ1       0.125000
     29 H2          -9.2670     9.7220     5.6730 ha         1 VZ1       0.113000
     30 H3          -6.1570    10.4510     5.4050 hc         1 VZ1       0.043533
     31 H4          -5.6880     8.7710     5.7180 hc         1 VZ1       0.043533
     32 H5          -7.0810     9.1200     4.6880 hc         1 VZ1       0.043533
     33 H6         -11.6770     8.7730     7.5240 hc         1 VZ1       0.043533
     34 H7         -11.6240    10.2540     8.4950 hc         1 VZ1       0.043533
     35 H8         -11.4250    10.3420     6.7410 hc         1 VZ1       0.043533
     36 H9          -3.8370     0.8380    13.1690 ha         1 VZ1       0.141000
     37 H10         -2.3850     2.8190    12.8980 ha         1 VZ1       0.134500
     38 H11         -4.8230     5.0050    15.7140 ha         1 VZ1       0.134500
     39 H12         -6.2800     3.0490    15.9930 ha         1 VZ1       0.141000
     40 H13         -1.9620     5.0640    13.3340 hn         1 VZ1       0.513000
     41 H14         -5.1970     6.4440    13.6530 h1         1 VZ1       0.106200
     42 H15         -4.1480     6.7340    12.2280 h1         1 VZ1       0.106200
     43 H16         -3.9580     9.1630    12.8720 h1         1 VZ1       0.075200
     44 H17         -4.9940     8.8710    14.2880 h1         1 VZ1       0.075200
     45 H18         -6.8720     8.8100    12.9100 hn         1 VZ1       0.311500
     46 H19         -7.9780     9.0700    11.2610 hn         1 VZ1       0.144000
     47 H20         -5.8270     9.1350     8.1830 ha         1 VZ1       0.125000
     48 H21         -8.1520     0.4430    14.0360 hn         1 VZ1       0.472500
     49 H22         -7.2030     1.5450    13.3650 hn         1 VZ1       0.472500
     50 S25         -6.2160     0.3680    14.7980 sy         1 VZ1       1.131600
@<TRIPOS>BOND
     1     1    18 ar  
     2     1    19 ar  
     3     1    28 1   
     4     2    19 ar  
     5     2    20 ar  
     6     2    29 1   
     7     3    20 1   
     8     3    30 1   
     9     3    31 1   
    10     3    32 1   
    11     4    19 1   
    12     4    33 1   
    13     4    34 1   
    14     4    35 1   
    15     5     6 ar  
    16     5    10 ar  
    17     5    50 1   
    18     6     7 ar  
    19     6    36 1   
    20     7     8 ar  
    21     7    37 1   
    22     8     9 ar  
    23     8    11 1   
    24     9    10 ar  
    25     9    38 1   
    26    10    39 1   
    27    11    22 1   
    28    11    40 1   
    29    12    13 1   
    30    12    22 1   
    31    12    41 1   
    32    12    42 1   
    33    13    14 1   
    34    13    43 1   
    35    13    44 1   
    36    14    15 1   
    37    14    45 1   
    38    15    16 2   
    39    15    17 1   
    40    17    18 1   
    41    17    46 1   
    42    18    21 ar  
    43    20    21 ar  
    44    21    47 1   
    45    22    23 2   
    46    22    24 2   
    47    25    50 2   
    48    26    50 2   
    49    27    48 1   
    50    27    49 1   
    51    27    50 1   
@<TRIPOS>SUBSTRUCTURE
     1 VZ1         1 TEMP              0 ****  ****    0 ROOT
