@<TRIPOS>MOLECULE
VZ1
   50    51     1     0     0
SMALL
bcc


@<TRIPOS>ATOM
      1 C15         -9.1470     9.6710     8.9870 ca         1 VZ1      -0.175500
      2 C17         -8.7230     9.8040     6.6350 ca         1 VZ1      -0.157000
      3 C20         -6.4320     9.3670     5.6980 c3         1 VZ1      -0.048800
      4 C21        -11.0550    10.2530     7.4640 c3         1 VZ1      -0.048800
      5 C01         -5.0390     1.7850    14.8240 ca         1 VZ1      -0.308500
      6 C02         -4.0640     1.6860    13.8360 ca         1 VZ1       0.011000
      7 C03         -3.3370     2.8020    13.4860 ca         1 VZ1      -0.204000
      8 C04         -3.5600     4.0280    14.1240 ca         1 VZ1       0.223600
      9 C05         -4.5350     4.1150    15.1170 ca         1 VZ1      -0.204000
     10 C06         -5.2730     2.9930    15.4590 ca         1 VZ1       0.011000
     11 N07         -2.7600     5.1000    13.7310 nu         1 VZ1      -0.715500
     12 C08         -4.5760     7.0270    13.0230 c3         1 VZ1      -0.270600
     13 C09         -5.0240     8.4850    13.1780 c3         1 VZ1       0.154000
     14 N10         -6.2310     8.7410    12.4410 ns         1 VZ1      -0.588900
     15 C11         -6.2130     8.9380    11.0960 c          1 VZ1       0.794100
     16 O12         -5.1720     8.9850    10.4570 o          1 VZ1      -0.618100
     17 N13         -7.4600     9.0920    10.5530 ns         1 VZ1      -0.487100
     18 C14         -7.8100     9.3290     9.2230 ca         1 VZ1       0.091600
     19 C16         -9.6140     9.9070     7.7050 ca         1 VZ1      -0.042800
     20 C18         -7.3950     9.4640     6.8470 ca         1 VZ1      -0.042800
     21 C19         -6.9370     9.2240     8.1430 ca         1 VZ1      -0.175500
     22 S22         -3.0770     6.7170    13.9430 s6         1 VZ1       1.241900
     23 O23         -3.3410     6.9590    15.3510 o          1 VZ1      -0.586300
     24 O24         -1.9700     7.4000    13.2990 o          1 VZ1      -0.586300
     25 O26         -5.0440    -0.8010    15.3260 o          1 VZ1      -0.612300
     26 O27         -6.7120     0.6550    16.4820 o          1 VZ1      -0.612300
     27 N28         -6.8870     0.1210    13.9460 n8         1 VZ1      -0.892700
     28 H1          -9.8310     9.7510     9.8260 ha         1 VZ1       0.143000
     29 H2          -9.0740     9.9940     5.6270 ha         1 VZ1       0.131000
     30 H3          -5.7050    10.1800     5.7270 hc         1 VZ1       0.043533
     31 H4          -5.8690     8.4330     5.7280 hc         1 VZ1       0.043533
     32 H5          -6.9460     9.4170     4.7390 hc         1 VZ1       0.043533
     33 H6         -11.5900     9.4090     7.0250 hc         1 VZ1       0.043533
     34 H7         -11.5650    10.5200     8.3890 hc         1 VZ1       0.043533
     35 H8         -11.1520    11.0890     6.7710 hc         1 VZ1       0.043533
     36 H9          -3.8720     0.7490    13.3320 ha         1 VZ1       0.159000
     37 H10         -2.5850     2.7260    12.7110 ha         1 VZ1       0.152500
     38 H11         -4.7240     5.0350    15.6490 ha         1 VZ1       0.152500
     39 H12         -6.0220     3.0770    16.2340 ha         1 VZ1       0.159000
     40 H13         -2.1370     4.9260    12.9510 hn         1 VZ1       0.457800
     41 H14         -5.3420     6.3430    13.3930 h1         1 VZ1       0.106200
     42 H15         -4.3570     6.7830    11.9830 h1         1 VZ1       0.106200
     43 H16         -4.2370     9.1590    12.8450 h1         1 VZ1       0.075200
     44 H17         -5.2230     8.7040    14.2250 h1         1 VZ1       0.075200
     45 H18         -7.1020     8.5730    12.9170 hn         1 VZ1       0.311500
     46 H19         -8.2350     9.1130    11.1980 hn         1 VZ1       0.310500
     47 H20         -5.9030     8.9580     8.2940 ha         1 VZ1       0.143000
     48 H21         -7.2940    -0.8110    13.9300 hn         1 VZ1       0.417300
     49 H22         -7.6170     0.8210    13.8610 hn         1 VZ1       0.417300
     50 S25         -5.9430     0.3440    15.2830 sy         1 VZ1       1.273200
@<TRIPOS>BOND
     1     1    18 ar  
     2     1    19 ar  
     3     1    28 1   
     4     2    19 ar  
     5     2    20 ar  
     6     2    29 1   
     7     3    20 1   
     8     3    30 1   
     9     3    31 1   
    10     3    32 1   
    11     4    19 1   
    12     4    33 1   
    13     4    34 1   
    14     4    35 1   
    15     5     6 ar  
    16     5    10 ar  
    17     5    50 1   
    18     6     7 ar  
    19     6    36 1   
    20     7     8 ar  
    21     7    37 1   
    22     8     9 ar  
    23     8    11 1   
    24     9    10 ar  
    25     9    38 1   
    26    10    39 1   
    27    11    22 1   
    28    11    40 1   
    29    12    13 1   
    30    12    22 1   
    31    12    41 1   
    32    12    42 1   
    33    13    14 1   
    34    13    43 1   
    35    13    44 1   
    36    14    15 1   
    37    14    45 1   
    38    15    16 2   
    39    15    17 1   
    40    17    18 1   
    41    17    46 1   
    42    18    21 ar  
    43    20    21 ar  
    44    21    47 1   
    45    22    23 2   
    46    22    24 2   
    47    25    50 2   
    48    26    50 2   
    49    27    48 1   
    50    27    49 1   
    51    27    50 1   
@<TRIPOS>SUBSTRUCTURE
     1 VZ1         1 TEMP              0 ****  ****    0 ROOT
