@<TRIPOS>MOLECULE
VZ2
   74    78     1     0     0
SMALL
No Charge or Current Charge


@<TRIPOS>ATOM
      1 C           -4.1660    -4.1400     7.1850 c3         1 VZ2      -0.146400
      2 N          -13.7840    -3.4520    15.9490 nb         1 VZ2      -0.265000
      3 C3          -7.1790    -6.0710     5.8400 ca         1 VZ2      -0.071000
      4 C4          -8.1390    -5.6180     6.7590 ca         1 VZ2      -0.157000
      5 C5          -7.7720    -4.6970     7.7750 cp         1 VZ2       0.412500
      6 C6          -8.7570    -4.1750     8.7890 cp         1 VZ2      -0.132500
      7 C7          -8.3250    -3.6590    10.0410 ca         1 VZ2      -0.070000
      8 C8          -9.2400    -3.1730    10.9900 ca         1 VZ2      -0.083000
      9 C1          -5.5700    -4.6830     6.9980 ca         1 VZ2       0.365300
     10 C10        -11.5540    -2.6650    11.7180 cc         1 VZ2      -0.170400
     11 C11        -11.7540    -3.4770    12.8100 cd         1 VZ2      -0.022200
     12 C12        -12.6770    -3.0630    13.8570 ca         1 VZ2      -0.308800
     13 C13        -12.9260    -3.8530    14.9930 ca         1 VZ2       0.207900
     14 C14        -14.3790    -2.2660    15.7530 ca         1 VZ2       0.424900
     15 C15        -15.8930    -0.5470    16.9050 c3         1 VZ2       0.237800
     16 C16        -14.8720     0.4970    17.4020 c3         1 VZ2      -0.126400
     17 C17        -15.4460     1.9250    17.4650 c3         1 VZ2       0.109000
     18 C18        -16.3850     2.3580    19.8530 c5         1 VZ2       0.096000
     19 C19        -17.7430     3.0450    20.1970 c5         1 VZ2      -0.091400
     20 C2          -5.8690    -5.5880     5.9650 ca         1 VZ2      -0.165000
     21 C20        -18.7060     2.2720    19.2570 c5         1 VZ2      -0.169400
     22 C21        -17.8900     2.1370    17.9770 c          1 VZ2       0.561000
     23 C22        -13.3530    -1.8420    13.7470 ca         1 VZ2       0.312900
     24 C24        -13.2540     1.4390    13.3730 c3         1 VZ2      -0.089400
     25 C25        -11.8020     1.8150    12.9980 c3         1 VZ2      -0.079400
     26 C26        -11.2490     2.9750    13.8500 c3         1 VZ2       0.149800
     27 C27        -12.2470    -1.3590    11.5630 c          1 VZ2       0.578200
     28 C28        -11.0720    -3.6820     9.4830 ca         1 VZ2       0.124000
     29 C29        -10.1560    -4.1700     8.5360 ca         1 VZ2      -0.096000
     30 C9         -10.6190    -3.1800    10.7190 ca         1 VZ2      -0.011800
     31 N1         -15.2560    -1.8680    16.7490 nu         1 VZ2      -0.911100
     32 N2         -16.5660     2.0530    18.4190 n          1 VZ2      -0.423800
     33 N3         -14.2150    -1.4450    14.7030 nb         1 VZ2      -0.311000
     34 N4         -13.1330    -0.9930    12.6080 n          1 VZ2      -0.363300
     35 N5          -9.8680     3.3190    13.4680 n8         1 VZ2      -0.992200
     36 N6          -6.4970    -4.2550     7.8810 nb         1 VZ2      -0.679000
     37 O1         -12.0540    -0.6370    10.5920 o          1 VZ2      -0.524000
     38 Cl         -12.7950    -3.7280     9.1030 cl         1 VZ2      -0.207000
     39 H           -4.1830    -3.0800     7.4640 hc         1 VZ2       0.052033
     40 H1          -3.6410    -4.6890     7.9750 hc         1 VZ2       0.052033
     41 H2          -3.5780    -4.2300     6.2650 hc         1 VZ2       0.052033
     42 H4          -7.4430    -6.7790     5.0570 ha         1 VZ2       0.119000
     43 H5          -9.1550    -5.9920     6.6920 ha         1 VZ2       0.125000
     44 H6          -7.2650    -3.6400    10.2880 ha         1 VZ2       0.139000
     45 H7          -8.8760    -2.7860    11.9390 ha         1 VZ2       0.125000
     46 H8         -11.2300    -4.4290    12.8840 ha         1 VZ2       0.194000
     47 H9         -12.4360    -4.8140    15.1410 h4         1 VZ2       0.025100
     48 H12        -16.3320    -0.2170    15.9520 h1         1 VZ2       0.065200
     49 H11        -16.7120    -0.6140    17.6370 h1         1 VZ2       0.065200
     50 H13        -14.5080     0.2080    18.3950 hc         1 VZ2       0.052700
     51 H14        -14.0020     0.5070    16.7350 hc         1 VZ2       0.052700
     52 H15        -14.6470     2.6130    17.7730 h1         1 VZ2       0.062200
     53 H16        -15.7640     2.2340    16.4610 h1         1 VZ2       0.062200
     54 H18        -16.2430     1.4320    20.4270 h1         1 VZ2       0.044200
     55 H17        -15.5280     3.0200    20.0370 h1         1 VZ2       0.044200
     56 H19        -18.0070     2.9590    21.2570 hc         1 VZ2       0.057700
     57 H20        -17.7180     4.1120    19.9440 hc         1 VZ2       0.057700
     58 H3          -5.0930    -5.9140     5.2770 ha         1 VZ2       0.123000
     59 H22        -18.8530     1.2680    19.6720 hc         1 VZ2       0.077200
     60 H21        -19.6760     2.7460    19.0760 hc         1 VZ2       0.077200
     61 H24        -13.8980     0.6430    11.4630 h1         1 VZ2       0.075700
     62 H23        -14.9050     0.1550    12.8070 h1         1 VZ2       0.075700
     63 H26        -13.8890     2.3280    13.2720 hc         1 VZ2       0.046700
     64 H25        -13.2890     1.1510    14.4290 hc         1 VZ2       0.046700
     65 H27        -11.1550     0.9380    13.1260 hc         1 VZ2       0.054200
     66 H28        -11.7640     2.0940    11.9380 hc         1 VZ2       0.054200
     67 H30        -11.8800     3.8650    13.7180 h1         1 VZ2       0.022200
     68 H29        -11.2600     2.6940    14.9120 h1         1 VZ2       0.022200
     69 H33        -10.5460    -4.5340     7.5900 ha         1 VZ2       0.127000
     70 H10        -15.3460    -2.5260    17.5240 hn         1 VZ2       0.510000
     71 H32         -9.5200     4.0530    14.0980 hn         1 VZ2       0.390000
     72 H34         -9.2570     2.5190    13.6710 hn         1 VZ2       0.390000
     73 C23        -13.8600     0.3070    12.5070 c3         1 VZ2       0.097000
     74 O          -18.2400     2.2880    16.8150 o          1 VZ2      -0.549000
@<TRIPOS>BOND
     1     1     9 1   
     2     1    39 1   
     3     1    40 1   
     4     1    41 1   
     5     2    13 ar  
     6     2    14 ar  
     7     3     4 ar  
     8     3    20 ar  
     9     3    42 1   
    10     4     5 ar  
    11     4    43 1   
    12     5     6 1   
    13     5    36 ar  
    14     6     7 ar  
    15     6    29 ar  
    16     7     8 ar  
    17     7    44 1   
    18     8    30 ar  
    19     8    45 1   
    20     9    20 ar  
    21     9    36 ar  
    22    10    11 2   
    23    10    27 1   
    24    10    30 1   
    25    11    12 1   
    26    11    46 1   
    27    12    13 ar  
    28    12    23 ar  
    29    13    47 1   
    30    14    31 1   
    31    14    33 ar  
    32    15    16 1   
    33    15    31 1   
    34    15    48 1   
    35    15    49 1   
    36    16    17 1   
    37    16    50 1   
    38    16    51 1   
    39    17    32 1   
    40    17    52 1   
    41    17    53 1   
    42    18    19 1   
    43    18    32 1   
    44    18    54 1   
    45    18    55 1   
    46    19    21 1   
    47    19    56 1   
    48    19    57 1   
    49    20    58 1   
    50    21    22 1   
    51    21    59 1   
    52    21    60 1   
    53    22    32 1   
    54    22    74 2   
    55    23    33 ar  
    56    23    34 1   
    57    24    25 1   
    58    24    63 1   
    59    24    64 1   
    60    24    73 1   
    61    25    26 1   
    62    25    65 1   
    63    25    66 1   
    64    26    35 1   
    65    26    67 1   
    66    26    68 1   
    67    27    34 1   
    68    27    37 2   
    69    28    29 ar  
    70    28    30 ar  
    71    28    38 1   
    72    29    69 1   
    73    31    70 1   
    74    34    73 1   
    75    35    71 1   
    76    35    72 1   
    77    61    73 1   
    78    62    73 1   
@<TRIPOS>SUBSTRUCTURE
     1 VZ2         1 TEMP              0 ****  ****    0 ROOT
