@<TRIPOS>MOLECULE
VZ2
   74    78     1     0     0
SMALL
abcg2


@<TRIPOS>ATOM
      1 C           -5.0920    -3.0030     6.1870 c3         1 VZ2      -0.146400
      2 N          -14.1190    -3.4680    15.9880 nb         1 VZ2      -0.265000
      3 C3          -6.9520    -6.2740     6.4490 ca         1 VZ2      -0.071000
      4 C4          -7.8910    -5.9280     7.4100 ca         1 VZ2      -0.157000
      5 C5          -7.8800    -4.6310     7.9120 cp         1 VZ2       0.412500
      6 C6          -8.8530    -4.1800     8.9330 cp         1 VZ2      -0.132500
      7 C7          -8.5600    -3.0930     9.7590 ca         1 VZ2      -0.070000
      8 C8          -9.4640    -2.6750    10.7160 ca         1 VZ2      -0.083000
      9 C1          -6.0800    -4.0540     6.5970 ca         1 VZ2       0.365300
     10 C10        -11.6190    -2.8590    11.9510 cc         1 VZ2      -0.170400
     11 C11        -11.9740    -3.6550    12.9850 cd         1 VZ2      -0.022200
     12 C12        -12.8610    -3.1850    13.9810 ca         1 VZ2      -0.308800
     13 C13        -13.2990    -3.9300    15.0800 ca         1 VZ2       0.207900
     14 C14        -14.5330    -2.1910    15.8180 ca         1 VZ2       0.424900
     15 C15        -15.8660    -0.3600    16.7770 c3         1 VZ2       0.237800
     16 C16        -14.8550     0.6230    17.3610 c3         1 VZ2      -0.126400
     17 C17        -15.3290     2.0700    17.2880 c3         1 VZ2       0.109000
     18 C18        -16.6320     2.2040    19.4450 c5         1 VZ2       0.096000
     19 C19        -17.9910     2.8260    19.7700 c5         1 VZ2      -0.091400
     20 C2          -6.0360    -5.3280     6.0300 ca         1 VZ2      -0.165000
     21 C20        -18.8020     2.5890    18.5010 c5         1 VZ2      -0.169400
     22 C21        -17.7570     2.4980    17.4080 c          1 VZ2       0.561000
     23 C22        -13.3600    -1.8740    13.9050 ca         1 VZ2       0.312900
     24 C24        -12.7640     1.2650    13.7130 c3         1 VZ2      -0.089400
     25 C25        -11.2990     1.4670    13.3540 c3         1 VZ2      -0.079400
     26 C26        -10.6270     2.4810    14.2690 c3         1 VZ2       0.149800
     27 C27        -12.1470    -1.5030    11.8420 c          1 VZ2       0.578200
     28 C28        -10.9760    -4.3830    10.0550 ca         1 VZ2       0.124000
     29 C29        -10.0800    -4.8170     9.0910 ca         1 VZ2      -0.096000
     30 C9         -10.6920    -3.3110    10.8980 ca         1 VZ2      -0.011800
     31 N1         -15.3780    -1.7180    16.7400 nu         1 VZ2      -0.911100
     32 N2         -16.5590     2.3120    18.0010 n          1 VZ2      -0.423800
     33 N3         -14.1820    -1.3860    14.8180 nb         1 VZ2      -0.311000
     34 N4         -12.9960    -1.0710    12.8610 n          1 VZ2      -0.363300
     35 N5          -9.2250     2.6520    13.9180 n8         1 VZ2      -0.992200
     36 N6          -6.9840    -3.7280     7.5100 nb         1 VZ2      -0.679000
     37 O1         -11.8740    -0.7680    10.9070 o          1 VZ2      -0.524000
     38 CL         -12.5020    -5.2020    10.1640 cl         1 VZ2      -0.207000
     39 H           -5.2970    -2.0620     6.6910 hc         1 VZ2       0.052033
     40 H1          -4.0740    -3.3100     6.4310 hc         1 VZ2       0.052033
     41 H2          -5.1240    -2.8340     5.1100 hc         1 VZ2       0.052033
     42 H4          -6.9370    -7.2750     6.0380 ha         1 VZ2       0.119000
     43 H5          -8.5980    -6.6650     7.7650 ha         1 VZ2       0.125000
     44 H6          -7.6150    -2.5790     9.6550 ha         1 VZ2       0.139000
     45 H7          -9.2070    -1.8410    11.3570 ha         1 VZ2       0.125000
     46 H8         -11.5800    -4.6610    13.0680 ha         1 VZ2       0.194000
     47 H9         -12.9510    -4.9530    15.2000 h4         1 VZ2       0.025100
     48 H12        -16.1510    -0.0510    15.7700 h1         1 VZ2       0.065200
     49 H11        -16.7770    -0.3680    17.3770 h1         1 VZ2       0.065200
     50 H13        -14.6290     0.3460    18.3940 hc         1 VZ2       0.052700
     51 H14        -13.9170     0.5550    16.8060 hc         1 VZ2       0.052700
     52 H15        -14.5540     2.7230    17.6970 h1         1 VZ2       0.062200
     53 H16        -15.4790     2.3630    16.2480 h1         1 VZ2       0.062200
     54 H18        -16.5780     1.1580    19.7640 h1         1 VZ2       0.044200
     55 H17        -15.8000     2.7350    19.9110 h1         1 VZ2       0.044200
     56 H19        -18.4400     2.3890    20.6600 hc         1 VZ2       0.057700
     57 H20        -17.8750     3.8960    19.9460 hc         1 VZ2       0.057700
     58 H3          -5.2910    -5.5660     5.2810 ha         1 VZ2       0.123000
     59 H22        -19.3430     1.6380    18.5340 hc         1 VZ2       0.077200
     60 H21        -19.5330     3.3680    18.2850 hc         1 VZ2       0.077200
     61 H24        -13.4710     0.6270    11.7750 h1         1 VZ2       0.075700
     62 H23        -14.5670     0.2650    13.0980 h1         1 VZ2       0.075700
     63 H26        -13.2890     2.2240    13.6550 hc         1 VZ2       0.046700
     64 H25        -12.8500     0.9360    14.7510 hc         1 VZ2       0.046700
     65 H27        -10.7610     0.5160    13.4280 hc         1 VZ2       0.054200
     66 H28        -11.2060     1.8000    12.3180 hc         1 VZ2       0.054200
     67 H30        -11.1280     3.4470    14.1570 h1         1 VZ2       0.022200
     68 H29        -10.7840     2.1750    15.3140 h1         1 VZ2       0.022200
     69 H33        -10.3640    -5.6400     8.4490 ha         1 VZ2       0.127000
     70 H10        -15.5890    -2.3320    17.5100 hn         1 VZ2       0.510000
     71 H32         -8.8100     3.3520    14.5190 hn         1 VZ2       0.390000
     72 H34         -8.7260     1.7940    14.1180 hn         1 VZ2       0.390000
     73 C23        -13.5190     0.2990    12.8100 c3         1 VZ2       0.097000
     74 O          -17.9590     2.5580    16.2060 o          1 VZ2      -0.549000
@<TRIPOS>BOND
     1     1     9 1   
     2     1    39 1   
     3     1    40 1   
     4     1    41 1   
     5     2    13 ar  
     6     2    14 ar  
     7     3     4 ar  
     8     3    20 ar  
     9     3    42 1   
    10     4     5 ar  
    11     4    43 1   
    12     5     6 1   
    13     5    36 ar  
    14     6     7 ar  
    15     6    29 ar  
    16     7     8 ar  
    17     7    44 1   
    18     8    30 ar  
    19     8    45 1   
    20     9    20 ar  
    21     9    36 ar  
    22    10    11 2   
    23    10    27 1   
    24    10    30 1   
    25    11    12 1   
    26    11    46 1   
    27    12    13 ar  
    28    12    23 ar  
    29    13    47 1   
    30    14    31 1   
    31    14    33 ar  
    32    15    16 1   
    33    15    31 1   
    34    15    48 1   
    35    15    49 1   
    36    16    17 1   
    37    16    50 1   
    38    16    51 1   
    39    17    32 1   
    40    17    52 1   
    41    17    53 1   
    42    18    19 1   
    43    18    32 1   
    44    18    54 1   
    45    18    55 1   
    46    19    21 1   
    47    19    56 1   
    48    19    57 1   
    49    20    58 1   
    50    21    22 1   
    51    21    59 1   
    52    21    60 1   
    53    22    32 1   
    54    22    74 2   
    55    23    33 ar  
    56    23    34 1   
    57    24    25 1   
    58    24    63 1   
    59    24    64 1   
    60    24    73 1   
    61    25    26 1   
    62    25    65 1   
    63    25    66 1   
    64    26    35 1   
    65    26    67 1   
    66    26    68 1   
    67    27    34 1   
    68    27    37 2   
    69    28    29 ar  
    70    28    30 ar  
    71    28    38 1   
    72    29    69 1   
    73    31    70 1   
    74    34    73 1   
    75    35    71 1   
    76    35    72 1   
    77    61    73 1   
    78    62    73 1   
@<TRIPOS>SUBSTRUCTURE
     1 VZ2         1 TEMP              0 ****  ****    0 ROOT
