@<TRIPOS>MOLECULE
VZ4
   53    56     1     0     0
SMALL
bcc


@<TRIPOS>ATOM
      1 CAA          3.2020    -3.0710    -1.1030 c3         1 VZ4      -0.094100
      2 CAB         -4.5390    -0.4540     1.7520 c3         1 VZ4      -0.080100
      3 NAC          5.0580     2.2210    -0.2890 n8         1 VZ4      -0.941700
      4 OAE          4.6910     0.0850    -1.4740 o          1 VZ4      -0.604800
      5 OAF          6.3680     0.2310     0.4040 o          1 VZ4      -0.604800
      6 CAG          1.8980     1.1500     0.5690 ca         1 VZ4      -0.168000
      7 CAH          0.8140    -1.3020     0.0300 ca         1 VZ4      -0.112000
      8 CAI          3.0000    -2.5000     0.3000 c3         1 VZ4      -0.032100
      9 CAJ         -6.0800     1.1020    -0.5020 c5         1 VZ4      -0.191400
     10 CAK         -0.2710     2.3370     0.2620 c6         1 VZ4      -0.031100
     11 CAL         -4.7630     1.8320    -0.1960 c5         1 VZ4      -0.066400
     12 CAM         -1.6230     2.1680    -0.4110 c6         1 VZ4      -0.070400
     13 CAN         -2.1250    -1.6270     0.1830 c6         1 VZ4      -0.070400
     14 CAO         -3.6050    -1.7600    -0.1940 c6         1 VZ4      -0.052400
     15 CAQ         -5.7890    -0.3810    -0.3150 c          1 VZ4       0.580100
     16 CAR          2.1760    -1.2400     0.3050 ca         1 VZ4      -0.054300
     17 CAS          0.5420     1.0690     0.2710 ca         1 VZ4      -0.055300
     18 CAT          2.6950     0.0190     0.5770 ca         1 VZ4       0.123100
     19 CAU         -0.0210    -0.1860     0.0070 ca         1 VZ4      -0.057300
     20 CAV         -1.4930    -0.3270    -0.3350 c6         1 VZ4      -0.013400
     21 CAW         -2.2970     0.9080     0.1060 c6         1 VZ4      -0.045700
     22 CAX         -3.7220     0.7270    -0.3810 c5         1 VZ4      -0.060700
     23 CAY         -4.3810    -0.5200     0.2210 c5         1 VZ4      -0.154000
     24 SAZ          5.1140     0.6030    -0.1970 s6         1 VZ4       1.541400
     25 HAA          3.7870    -3.9900    -1.0600 hc         1 VZ4       0.043033
     26 HAAA         2.2480    -3.3090    -1.5750 hc         1 VZ4       0.043033
     27 HAAB         3.7280    -2.3650    -1.7430 hc         1 VZ4       0.043033
     28 HAB         -5.0800    -1.3340     2.1040 hc         1 VZ4       0.041700
     29 HABA        -3.5790    -0.4360     2.2660 hc         1 VZ4       0.041700
     30 HABB        -5.0940     0.4250     2.0830 hc         1 VZ4       0.041700
     31 HAH          0.3980    -2.2790    -0.1840 ha         1 VZ4       0.138000
     32 HAN         -1.9980    -1.6850     1.2680 hc         1 VZ4       0.045700
     33 HANA        -1.6020    -2.4920    -0.2280 hc         1 VZ4       0.045700
     34 HAO         -3.6870    -1.8930    -1.2770 hc         1 VZ4       0.052700
     35 HAOA        -4.0210    -2.6600     0.2660 hc         1 VZ4       0.052700
     36 HAV         -1.5600    -0.3570    -1.4330 hc         1 VZ4       0.058700
     37 HNAC         5.2830     2.7150     0.5670 hn         1 VZ4       0.435800
     38 HNAA         4.2560     2.6060    -0.7730 hn         1 VZ4       0.435800
     39 HAG          2.3270     2.1140     0.8190 ha         1 VZ4       0.127000
     40 HAI          2.4940    -3.2460     0.9170 hc         1 VZ4       0.054200
     41 HAIA         3.9700    -2.3290     0.7660 hc         1 VZ4       0.054200
     42 HAJ         -6.9190     1.4110     0.1240 hc         1 VZ4       0.073200
     43 HAJA        -6.3930     1.2590    -1.5380 hc         1 VZ4       0.073200
     44 HAK          0.3020     3.1310    -0.2230 hc         1 VZ4       0.050200
     45 HAKA        -0.4230     2.6660     1.2950 hc         1 VZ4       0.050200
     46 HAL         -4.5990     2.6720    -0.8690 hc         1 VZ4       0.049700
     47 HALA        -4.7540     2.2270     0.8220 hc         1 VZ4       0.049700
     48 HAM         -2.2400     3.0480    -0.2160 hc         1 VZ4       0.046700
     49 HAMA        -1.5030     2.1000    -1.4980 hc         1 VZ4       0.046700
     50 HAW         -2.2930     0.9580     1.2040 hc         1 VZ4       0.057700
     51 HAX         -3.6600     0.5490    -1.4660 hc         1 VZ4       0.048700
     52 OAD         -6.5560    -1.2830    -0.5530 o          1 VZ4      -0.509100
     53 OAP          4.0340     0.1420     0.9290 os         1 VZ4      -0.474800
@<TRIPOS>BOND
     1     1     8 1   
     2     1    25 1   
     3     1    26 1   
     4     1    27 1   
     5     2    23 1   
     6     2    28 1   
     7     2    29 1   
     8     2    30 1   
     9     3    24 1   
    10     3    37 1   
    11     3    38 1   
    12     4    24 2   
    13     5    24 2   
    14     6    17 ar  
    15     6    18 ar  
    16     6    39 1   
    17     7    16 ar  
    18     7    19 ar  
    19     7    31 1   
    20     8    16 1   
    21     8    40 1   
    22     8    41 1   
    23     9    11 1   
    24     9    15 1   
    25     9    42 1   
    26     9    43 1   
    27    10    12 1   
    28    10    17 1   
    29    10    44 1   
    30    10    45 1   
    31    11    22 1   
    32    11    46 1   
    33    11    47 1   
    34    12    21 1   
    35    12    48 1   
    36    12    49 1   
    37    13    14 1   
    38    13    20 1   
    39    13    32 1   
    40    13    33 1   
    41    14    23 1   
    42    14    34 1   
    43    14    35 1   
    44    15    23 1   
    45    15    52 2   
    46    16    18 ar  
    47    17    19 ar  
    48    18    53 1   
    49    19    20 1   
    50    20    21 1   
    51    20    36 1   
    52    21    22 1   
    53    21    50 1   
    54    22    23 1   
    55    22    51 1   
    56    24    53 1   
@<TRIPOS>SUBSTRUCTURE
     1 VZ4         1 TEMP              0 ****  ****    0 ROOT
