@<TRIPOS>MOLECULE
VZ4
   53    56     1     0     0
SMALL
No Charge or Current Charge


@<TRIPOS>ATOM
      1 CAA          3.4020    -3.0370    -0.9240 c3         1 VZ4      -0.094100
      2 CAB         -4.6280    -0.5200     1.7990 c3         1 VZ4      -0.080100
      3 NAC          5.7870     1.9270     0.2380 n8         1 VZ4      -1.052100
      4 OAE          4.3990     1.0690    -1.6060 o          1 VZ4      -0.534000
      5 OAF          6.1540    -0.4180    -0.4740 o          1 VZ4      -0.534000
      6 CAG          1.9080     1.2470     0.4140 ca         1 VZ4      -0.150000
      7 CAH          0.8320    -1.3090     0.0540 ca         1 VZ4      -0.094000
      8 CAI          3.0670    -2.4270     0.4520 c3         1 VZ4      -0.032100
      9 CAJ         -6.2370     1.1020    -0.2670 c5         1 VZ4      -0.191400
     10 CAK         -0.3070     2.3840     0.0310 c6         1 VZ4      -0.031100
     11 CAL         -4.8670     1.8540    -0.1390 c5         1 VZ4      -0.066400
     12 CAM         -1.7110     2.1690    -0.5690 c6         1 VZ4      -0.070400
     13 CAN         -2.1840    -1.6690     0.1700 c6         1 VZ4      -0.070400
     14 CAO         -3.6960    -1.7960    -0.1940 c6         1 VZ4      -0.052400
     15 CAQ         -5.9090    -0.3990    -0.3900 c          1 VZ4       0.580100
     16 CAR          2.2050    -1.1700     0.3370 ca         1 VZ4      -0.054300
     17 CAS          0.5380     1.1080     0.1260 ca         1 VZ4      -0.055300
     18 CAT          2.7410     0.1230     0.5080 ca         1 VZ4       0.123100
     19 CAU         -0.0220    -0.1860    -0.0420 ca         1 VZ4      -0.057300
     20 CAV         -1.5260    -0.3550    -0.3830 c6         1 VZ4      -0.013400
     21 CAW         -2.3580     0.9040     0.0350 c6         1 VZ4      -0.045700
     22 CAX         -3.8330     0.7170    -0.4090 c5         1 VZ4      -0.060700
     23 CAY         -4.5040    -0.5350     0.2350 c5         1 VZ4      -0.154000
     24 SAZ          5.1140     0.6090    -0.4190 s6         1 VZ4       1.399800
     25 HAA          4.0260    -3.9310    -0.8040 hc         1 VZ4       0.043033
     26 HAAA         2.4870    -3.3260    -1.4540 hc         1 VZ4       0.043033
     27 HAAB         3.9490    -2.3180    -1.5450 hc         1 VZ4       0.043033
     28 HAB         -5.1600    -1.4110     2.1530 hc         1 VZ4       0.041700
     29 HABA        -3.6540    -0.5080     2.2980 hc         1 VZ4       0.041700
     30 HABB        -5.1810     0.3480     2.1760 hc         1 VZ4       0.041700
     31 HAH          0.4450    -2.3110    -0.0960 ha         1 VZ4       0.120000
     32 HAN         -2.0430    -1.7270     1.2570 hc         1 VZ4       0.045700
     33 HANA        -1.6810    -2.5500    -0.2470 hc         1 VZ4       0.045700
     34 HAO         -3.7850    -1.9370    -1.2800 hc         1 VZ4       0.052700
     35 HAOA        -4.1210    -2.7000     0.2650 hc         1 VZ4       0.052700
     36 HAV         -1.5760    -0.4260    -1.4790 hc         1 VZ4       0.058700
     37 HNAC         5.1640     2.0190     1.0360 hn         1 VZ4       0.491000
     38 HNAA         5.4450     2.6220    -0.4180 hn         1 VZ4       0.491000
     39 HAG          2.3270     2.2380     0.5620 ha         1 VZ4       0.109000
     40 HAI          2.5410    -3.1810     1.0500 hc         1 VZ4       0.054200
     41 HAIA         4.0000    -2.2240     0.9900 hc         1 VZ4       0.054200
     42 HAJ         -6.7990     1.2490     0.6620 hc         1 VZ4       0.073200
     43 HAJA        -6.8620     1.4260    -1.1060 hc         1 VZ4       0.073200
     44 HAK          0.2250     3.1430    -0.5590 hc         1 VZ4       0.050200
     45 HAKA        -0.4130     2.8060     1.0400 hc         1 VZ4       0.050200
     46 HAL         -4.7760     2.6730    -0.8610 hc         1 VZ4       0.049700
     47 HALA        -4.7370     2.2900     0.8590 hc         1 VZ4       0.049700
     48 HAM         -2.3270     3.0570    -0.3730 hc         1 VZ4       0.046700
     49 HAMA        -1.6390     2.0700    -1.6620 hc         1 VZ4       0.046700
     50 HAW         -2.3300     1.0040     1.1290 hc         1 VZ4       0.057700
     51 HAX         -3.7710     0.5780    -1.4970 hc         1 VZ4       0.048700
     52 OAD         -6.4740    -1.2220    -1.1000 o          1 VZ4      -0.509100
     53 OAP          4.0710     0.3030     0.8030 os         1 VZ4      -0.474800
@<TRIPOS>BOND
     1     1     8 1   
     2     1    25 1   
     3     1    26 1   
     4     1    27 1   
     5     2    23 1   
     6     2    28 1   
     7     2    29 1   
     8     2    30 1   
     9     3    24 1   
    10     3    37 1   
    11     3    38 1   
    12     4    24 2   
    13     5    24 2   
    14     6    17 ar  
    15     6    18 ar  
    16     6    39 1   
    17     7    16 ar  
    18     7    19 ar  
    19     7    31 1   
    20     8    16 1   
    21     8    40 1   
    22     8    41 1   
    23     9    11 1   
    24     9    15 1   
    25     9    42 1   
    26     9    43 1   
    27    10    12 1   
    28    10    17 1   
    29    10    44 1   
    30    10    45 1   
    31    11    22 1   
    32    11    46 1   
    33    11    47 1   
    34    12    21 1   
    35    12    48 1   
    36    12    49 1   
    37    13    14 1   
    38    13    20 1   
    39    13    32 1   
    40    13    33 1   
    41    14    23 1   
    42    14    34 1   
    43    14    35 1   
    44    15    23 1   
    45    15    52 2   
    46    16    18 ar  
    47    17    19 ar  
    48    18    53 1   
    49    19    20 1   
    50    20    21 1   
    51    20    36 1   
    52    21    22 1   
    53    21    50 1   
    54    22    23 1   
    55    22    51 1   
    56    24    53 1   
@<TRIPOS>SUBSTRUCTURE
     1 VZ4         1 TEMP              0 ****  ****    0 ROOT
