@<TRIPOS>MOLECULE
VZ5
   55    58     1     0     0
SMALL
abcg2


@<TRIPOS>ATOM
      1 C1           1.9220    -1.1660    -0.5360 ca         1 VZ5      -0.122000
      2 N1           4.9430    -2.2220     0.2310 n8         1 VZ5      -1.056100
      3 O1           4.7530    -0.0930     1.4780 o          1 VZ5      -0.549000
      4 S1           5.1450    -0.6040     0.1860 s6         1 VZ5       1.390800
      5 C2           2.7210    -0.0380    -0.5630 ca         1 VZ5       0.122100
      6 O2           6.3910    -0.2040    -0.4220 o          1 VZ5      -0.549000
      7 C3           2.2100     1.2270    -0.3080 ca         1 VZ5      -0.059300
      8 O3           4.0590    -0.1640    -0.9270 os         1 VZ5      -0.446800
      9 C4           0.8500     1.2980    -0.0200 ca         1 VZ5      -0.102000
     10 C5           0.0120     0.1870     0.0250 ca         1 VZ5      -0.054300
     11 C6           0.5680    -1.0730    -0.2350 ca         1 VZ5      -0.062300
     12 C7          -0.2560    -2.3350    -0.2230 c6         1 VZ5      -0.030100
     13 C8          -1.6110    -2.1560     0.4400 c6         1 VZ5      -0.070400
     14 C9          -2.2760    -0.8860    -0.0690 c6         1 VZ5      -0.045700
     15 C10         -1.4560     0.3330     0.3840 c6         1 VZ5      -0.013400
     16 C11         -2.0850     1.6470    -0.0990 c6         1 VZ5      -0.068400
     17 C12         -3.5600     1.7740     0.2940 c6         1 VZ5      -0.060400
     18 C13         -4.3710     0.5550    -0.1330 c5         1 VZ5      -0.038000
     19 C14         -3.6970    -0.7040     0.4290 c5         1 VZ5      -0.066700
     20 C15         -4.7330    -1.8120     0.2170 c5         1 VZ5      -0.064400
     21 C16         -6.0880    -1.0800     0.3540 c5         1 VZ5      -0.116400
     22 C17         -5.7410     0.4140     0.5350 c5         1 VZ5       0.171300
     23 O17         -6.6880     1.3090     0.0070 oh         1 VZ5      -0.651000
     24 C18         -4.5210     0.5210    -1.6570 c3         1 VZ5      -0.074100
     25 C19          3.0380     2.4850    -0.3330 c3         1 VZ5      -0.032100
     26 C20          3.2610     3.0750     1.0580 c3         1 VZ5      -0.094100
     27 H10         -1.5120     0.3350     1.4840 hc         1 VZ5       0.055700
     28 H20          2.3150     3.3230     1.5400 hc         1 VZ5       0.041367
     29 H20A         3.7960     2.3770     1.7010 hc         1 VZ5       0.041367
     30 H20B         3.8480     3.9930     0.9930 hc         1 VZ5       0.041367
     31 H1           2.3550    -2.1340    -0.7570 ha         1 VZ5       0.129000
     32 H11         -1.5510     2.5000     0.3230 hc         1 VZ5       0.044200
     33 H11A        -1.9670     1.7240    -1.1840 hc         1 VZ5       0.044200
     34 H12         -3.6290     1.8840     1.3820 hc         1 VZ5       0.045700
     35 H12A        -3.9730     2.6910    -0.1380 hc         1 VZ5       0.045700
     36 H4           0.4410     2.2810     0.1850 ha         1 VZ5       0.118000
     37 H14         -3.6220    -0.5490     1.5170 hc         1 VZ5       0.043700
     38 H15         -4.6300    -2.2670    -0.7710 hc         1 VZ5       0.044200
     39 H15A        -4.6210    -2.6160     0.9460 hc         1 VZ5       0.044200
     40 H16         -6.6980    -1.2070    -0.5430 hc         1 VZ5       0.047200
     41 H16A        -6.6780    -1.4580     1.1910 hc         1 VZ5       0.047200
     42 H7          -0.4030    -2.6660    -1.2570 hc         1 VZ5       0.050700
     43 H17         -5.5960     0.6120     1.6090 h1         1 VZ5       0.026700
     44 H7A          0.3090    -3.1320     0.2660 hc         1 VZ5       0.050700
     45 H8          -2.2350    -3.0300     0.2350 hc         1 VZ5       0.045200
     46 H18         -3.5590     0.5170    -2.1690 hc         1 VZ5       0.037033
     47 H8A         -1.4980    -2.0970     1.5280 hc         1 VZ5       0.045200
     48 H18A        -5.0670    -0.3560    -2.0060 hc         1 VZ5       0.037033
     49 H18B        -5.0620     1.4010    -2.0050 hc         1 VZ5       0.037033
     50 H9          -2.2760    -0.9260    -1.1670 hc         1 VZ5       0.058700
     51 H19          4.0010     2.3040    -0.8100 hc         1 VZ5       0.052700
     52 H19A         2.5260     3.2230    -0.9550 hc         1 VZ5       0.052700
     53 HN1          5.4160    -2.7220    -0.5130 hn         1 VZ5       0.487500
     54 HN1A         5.1410    -2.6180     1.1430 hn         1 VZ5       0.487500
     55 HO17        -7.5140     1.1890     0.4830 ho         1 VZ5       0.442000
@<TRIPOS>BOND
     1     1     5 ar  
     2     1    11 ar  
     3     1    31 1   
     4     2     4 1   
     5     2    53 1   
     6     2    54 1   
     7     3     4 2   
     8     4     6 2   
     9     4     8 1   
    10     5     7 ar  
    11     5     8 1   
    12     7     9 ar  
    13     7    25 1   
    14     9    10 ar  
    15     9    36 1   
    16    10    11 ar  
    17    10    15 1   
    18    11    12 1   
    19    12    13 1   
    20    12    42 1   
    21    12    44 1   
    22    13    14 1   
    23    13    45 1   
    24    13    47 1   
    25    14    15 1   
    26    14    19 1   
    27    14    50 1   
    28    15    16 1   
    29    15    27 1   
    30    16    17 1   
    31    16    32 1   
    32    16    33 1   
    33    17    18 1   
    34    17    34 1   
    35    17    35 1   
    36    18    19 1   
    37    18    22 1   
    38    18    24 1   
    39    19    20 1   
    40    19    37 1   
    41    20    21 1   
    42    20    38 1   
    43    20    39 1   
    44    21    22 1   
    45    21    40 1   
    46    21    41 1   
    47    22    23 1   
    48    22    43 1   
    49    23    55 1   
    50    24    46 1   
    51    24    48 1   
    52    24    49 1   
    53    25    26 1   
    54    25    51 1   
    55    25    52 1   
    56    26    28 1   
    57    26    29 1   
    58    26    30 1   
@<TRIPOS>SUBSTRUCTURE
     1 VZ5         1 TEMP              0 ****  ****    0 ROOT
