@<TRIPOS>MOLECULE
VZ5
   55    58     1     0     0
SMALL
No Charge or Current Charge


@<TRIPOS>ATOM
      1 C1           1.9530    -1.1630    -0.4600 ca         1 VZ5      -0.122000
      2 N1           5.2530    -2.2740    -0.1570 n8         1 VZ5      -1.056100
      3 O1           4.5000    -0.7400     1.6150 o          1 VZ5      -0.549000
      4 S1           5.1360    -0.7220     0.3000 s6         1 VZ5       1.390800
      5 C2           2.7770    -0.0290    -0.5440 ca         1 VZ5       0.122100
      6 O2           6.4730    -0.1690     0.0980 o          1 VZ5      -0.549000
      7 C3           2.2290     1.2550    -0.3420 ca         1 VZ5      -0.059300
      8 O3           4.1060    -0.1820    -0.8570 os         1 VZ5      -0.446800
      9 C4           0.8590     1.3760    -0.0380 ca         1 VZ5      -0.102000
     10 C5           0.0160     0.2440     0.0460 ca         1 VZ5      -0.054300
     11 C6           0.5850    -1.0410    -0.1530 ca         1 VZ5      -0.062300
     12 C7          -0.2470    -2.3270    -0.0720 c6         1 VZ5      -0.030100
     13 C8          -1.6440    -2.1360     0.5520 c6         1 VZ5      -0.070400
     14 C9          -2.3110    -0.8670    -0.0200 c6         1 VZ5      -0.045700
     15 C10         -1.4850     0.3930     0.4080 c6         1 VZ5      -0.013400
     16 C11         -2.1630     1.7080    -0.1160 c6         1 VZ5      -0.068400
     17 C12         -3.6670     1.8120     0.2840 c6         1 VZ5      -0.060400
     18 C13         -4.4760     0.5570    -0.1540 c5         1 VZ5      -0.038000
     19 C14         -3.7850    -0.7060     0.4450 c5         1 VZ5      -0.066700
     20 C15         -4.8060    -1.8290     0.1070 c5         1 VZ5      -0.064400
     21 C16         -6.1930    -1.1230     0.3100 c5         1 VZ5      -0.116400
     22 C17         -5.8500     0.3830     0.5770 c5         1 VZ5       0.171300
     23 O17         -6.8670     1.2600     0.0950 oh         1 VZ5      -0.651000
     24 C18         -4.6130     0.5780    -1.7210 c3         1 VZ5      -0.074100
     25 C19          3.0830     2.5190    -0.4360 c3         1 VZ5      -0.032100
     26 C20          3.5180     3.0360     0.9490 c3         1 VZ5      -0.094100
     27 H10         -1.5220     0.4460     1.5060 hc         1 VZ5       0.055700
     28 H20          2.6430     3.2760     1.5650 hc         1 VZ5       0.041367
     29 H20A         4.1140     2.2820     1.4750 hc         1 VZ5       0.041367
     30 H20B         4.1240     3.9440     0.8460 hc         1 VZ5       0.041367
     31 H1           2.3810    -2.1470    -0.6340 ha         1 VZ5       0.129000
     32 H11         -1.6600     2.5880     0.3010 hc         1 VZ5       0.044200
     33 H11A        -2.0460     1.7800    -1.2060 hc         1 VZ5       0.044200
     34 H12         -3.7340     1.9290     1.3750 hc         1 VZ5       0.045700
     35 H12A        -4.1090     2.7220    -0.1440 hc         1 VZ5       0.045700
     36 H4           0.4660     2.3720     0.1380 ha         1 VZ5       0.118000
     37 H14         -3.7130    -0.6180     1.5380 hc         1 VZ5       0.043700
     38 H15         -4.6870    -2.1950    -0.9200 hc         1 VZ5       0.044200
     39 H15A        -4.6910    -2.6970     0.7660 hc         1 VZ5       0.044200
     40 H16         -6.8230    -1.2500    -0.5780 hc         1 VZ5       0.047200
     41 H16A        -6.7470    -1.5540     1.1510 hc         1 VZ5       0.047200
     42 H7          -0.3630    -2.7300    -1.0880 hc         1 VZ5       0.050700
     43 H17         -5.7190     0.5410     1.6570 h1         1 VZ5       0.026700
     44 H7A          0.3000    -3.0930     0.4950 hc         1 VZ5       0.050700
     45 H8          -2.2540    -3.0260     0.3470 hc         1 VZ5       0.045200
     46 H18         -3.6460     0.5130    -2.2300 hc         1 VZ5       0.037033
     47 H8A         -1.5580    -2.0570     1.6440 hc         1 VZ5       0.045200
     48 H18A        -5.2280    -0.2410    -2.1080 hc         1 VZ5       0.037033
     49 H18B        -5.0870     1.5080    -2.0570 hc         1 VZ5       0.037033
     50 H9          -2.2940    -0.9470    -1.1160 hc         1 VZ5       0.058700
     51 H19          3.9740     2.3510    -1.0520 hc         1 VZ5       0.052700
     52 H19A         2.5180     3.3100    -0.9440 hc         1 VZ5       0.052700
     53 HN1          6.2330    -2.2790    -0.4250 hn         1 VZ5       0.487500
     54 HN1A         5.2840    -2.7100     0.7600 hn         1 VZ5       0.487500
     55 HO17        -7.6880     1.0330     0.5840 ho         1 VZ5       0.442000
@<TRIPOS>BOND
     1     1     5 ar  
     2     1    11 ar  
     3     1    31 1   
     4     2     4 1   
     5     2    53 1   
     6     2    54 1   
     7     3     4 2   
     8     4     6 2   
     9     4     8 1   
    10     5     7 ar  
    11     5     8 1   
    12     7     9 ar  
    13     7    25 1   
    14     9    10 ar  
    15     9    36 1   
    16    10    11 ar  
    17    10    15 1   
    18    11    12 1   
    19    12    13 1   
    20    12    42 1   
    21    12    44 1   
    22    13    14 1   
    23    13    45 1   
    24    13    47 1   
    25    14    15 1   
    26    14    19 1   
    27    14    50 1   
    28    15    16 1   
    29    15    27 1   
    30    16    17 1   
    31    16    32 1   
    32    16    33 1   
    33    17    18 1   
    34    17    34 1   
    35    17    35 1   
    36    18    19 1   
    37    18    22 1   
    38    18    24 1   
    39    19    20 1   
    40    19    37 1   
    41    20    21 1   
    42    20    38 1   
    43    20    39 1   
    44    21    22 1   
    45    21    40 1   
    46    21    41 1   
    47    22    23 1   
    48    22    43 1   
    49    23    55 1   
    50    24    46 1   
    51    24    48 1   
    52    24    49 1   
    53    25    26 1   
    54    25    51 1   
    55    25    52 1   
    56    26    28 1   
    57    26    29 1   
    58    26    30 1   
@<TRIPOS>SUBSTRUCTURE
     1 VZ5         1 TEMP              0 ****  ****    0 ROOT
