@<TRIPOS>MOLECULE
VZ6
   65    71     1     0     0
SMALL
abcg2


@<TRIPOS>ATOM
      1 C18         40.9820    30.0280     0.4460 ca         1 VZ6       0.101500
      2 C13         41.1730    27.7000     1.3250 c5         1 VZ6       0.288300
      3 C10         44.0330    25.7790     2.2410 c3         1 VZ6       0.236600
      4 C15         42.9320    29.5580     1.3220 cc         1 VZ6       0.449700
      5 C17         41.8580    31.0970     0.3470 ca         1 VZ6      -0.085600
      6 C2          46.5020    25.3680    -1.0260 c5         1 VZ6       0.187300
      7 C20         39.3720    31.1210    -0.5680 ca         1 VZ6       0.154900
      8 C22         41.3590    32.2490    -0.2890 ca         1 VZ6       0.438900
      9 C24         41.2090    26.8800     0.0390 c5         1 VZ6       0.113300
     10 C28         47.1920    27.2220    -2.4420 c5         1 VZ6      -0.088400
     11 C29         47.5830    27.4850    -0.9740 c5         1 VZ6       0.043300
     12 C3          46.3680    25.9100    -2.4410 c5         1 VZ6      -0.114700
     13 C31         46.4890    29.7370    -0.6950 cc         1 VZ6       0.429400
     14 C33         47.9890    30.8130     0.3220 cd         1 VZ6       0.155500
     15 C34         48.5090    29.5550     0.0840 cc         1 VZ6       0.106400
     16 C36         50.4250    29.9610     1.0830 cd         1 VZ6       0.476800
     17 C38         48.7730    31.7730     1.0330 c          1 VZ6       0.515500
     18 C4          44.9140    26.1800    -2.8090 c3         1 VZ6       0.239600
     19 C40         46.6160    26.6110    -0.1690 c5         1 VZ6       0.204300
     20 C8          42.5880    26.2400     0.1330 c5         1 VZ6       0.206300
     21 C9          42.6590    25.9420     1.6340 c5         1 VZ6       0.138300
     22 F1          47.6950    24.6470    -0.9280 f          1 VZ6      -0.276000
     23 F25         40.2370    25.8930     0.1180 f          1 VZ6      -0.256000
     24 N14         41.6850    29.0440     1.0770 na         1 VZ6      -0.300300
     25 N16         43.0700    30.7830     0.9020 nd         1 VZ6      -0.561100
     26 N19         39.7270    29.9820     0.0030 nb         1 VZ6      -0.209000
     27 N21         40.0980    32.2230    -0.7350 nb         1 VZ6      -0.330000
     28 N23         42.0910    33.3500    -0.4700 nv         1 VZ6      -1.078900
     29 N30         47.5440    28.8780    -0.5860 na         1 VZ6      -0.131500
     30 N32         46.7220    30.9080    -0.1740 nd         1 VZ6      -0.607000
     31 N35         49.7220    29.0870     0.4420 nc         1 VZ6      -0.583100
     32 N37         50.0130    31.2170     1.3720 ns         1 VZ6      -0.434400
     33 O11         44.7550    26.9750     2.0930 os         1 VZ6      -0.622400
     34 O12         41.9800    27.0410     2.2480 os         1 VZ6      -0.443000
     35 O39         48.4840    32.9150     1.3440 o          1 VZ6      -0.561000
     36 O41         47.0210    26.3130     1.1340 os         1 VZ6      -0.571400
     37 O5          44.1780    24.9740    -2.7380 os         1 VZ6      -0.598400
     38 O7          42.7870    25.0660    -0.5910 os         1 VZ6      -0.585400
     39 P42         46.3610    27.0890     2.4380 p5         1 VZ6       1.397800
     40 P6          42.6150    24.9480    -2.2400 p5         1 VZ6       1.409800
     41 H1          40.1510    27.8080     1.7020 h2         1 VZ6       0.090700
     42 H2          43.9300    25.5140     3.2990 h1         1 VZ6       0.034200
     43 H3          44.5180    24.9300     1.7460 h1         1 VZ6       0.034200
     44 H4          43.7010    28.9840     1.8140 h5         1 VZ6       0.127800
     45 H5          45.6930    24.7040    -0.7190 h1         1 VZ6       0.100700
     46 H6          38.3590    31.1670    -0.9540 h5         1 VZ6       0.025100
     47 H7          41.0320    27.4670    -0.8590 h1         1 VZ6       0.127700
     48 H8          48.0820    27.1430    -3.0640 hc         1 VZ6       0.042200
     49 H9          46.6060    28.0490    -2.8510 hc         1 VZ6       0.042200
     50 H10         48.6040    27.1480    -0.7910 h1         1 VZ6       0.102700
     51 H11         46.7740    25.1870    -3.1510 hc         1 VZ6       0.070700
     52 H12         45.5690    29.4470    -1.1810 h5         1 VZ6       0.060100
     53 H13         51.4190    29.7060     1.4280 h5         1 VZ6       0.027800
     54 H14         44.8770    26.5830    -3.8260 h1         1 VZ6       0.016200
     55 H15         44.4990    26.9580    -2.1580 h1         1 VZ6       0.016200
     56 H16         45.6310    27.0940    -0.1850 h1         1 VZ6       0.045700
     57 H17         43.3240    27.0130    -0.1240 h1         1 VZ6       0.049700
     58 H18         42.1100    25.0120     1.8320 h1         1 VZ6       0.062700
     59 H19         41.6870    34.1610    -0.9040 hn         1 VZ6       0.499500
     60 H20         43.0320    33.4110    -0.1240 hn         1 VZ6       0.499500
     61 H21         50.6530    31.8130     1.8830 hn         1 VZ6       0.304500
     62 O26         41.9090    26.1670    -2.7450 o          1 VZ6      -0.811500
     63 O27         42.1440    23.5570    -2.4880 o          1 VZ6      -0.811500
     64 O43         46.6520    28.5510     2.3740 o          1 VZ6      -0.805000
     65 O44         46.7110    26.2350     3.6100 o          1 VZ6      -0.805000
@<TRIPOS>BOND
     1     1     5 ar  
     2     1    24 1   
     3     1    26 ar  
     4     2     9 1   
     5     2    24 1   
     6     2    34 1   
     7     2    41 1   
     8     3    21 1   
     9     3    33 1   
    10     3    42 1   
    11     3    43 1   
    12     4    24 1   
    13     4    25 2   
    14     4    44 1   
    15     5     8 ar  
    16     5    25 1   
    17     6    12 1   
    18     6    19 1   
    19     6    22 1   
    20     6    45 1   
    21     7    26 ar  
    22     7    27 ar  
    23     7    46 1   
    24     8    27 ar  
    25     8    28 1   
    26     9    20 1   
    27     9    23 1   
    28     9    47 1   
    29    10    11 1   
    30    10    12 1   
    31    10    48 1   
    32    10    49 1   
    33    11    19 1   
    34    11    29 1   
    35    11    50 1   
    36    12    18 1   
    37    12    51 1   
    38    13    29 1   
    39    13    30 2   
    40    13    52 1   
    41    14    15 2   
    42    14    17 1   
    43    14    30 1   
    44    15    29 1   
    45    15    31 1   
    46    16    31 2   
    47    16    32 1   
    48    16    53 1   
    49    17    32 1   
    50    17    35 2   
    51    18    37 1   
    52    18    54 1   
    53    18    55 1   
    54    19    36 1   
    55    19    56 1   
    56    20    21 1   
    57    20    38 1   
    58    20    57 1   
    59    21    34 1   
    60    21    58 1   
    61    28    59 1   
    62    28    60 1   
    63    32    61 1   
    64    33    39 1   
    65    36    39 1   
    66    37    40 1   
    67    38    40 1   
    68    39    64 1   
    69    39    65 1   
    70    40    62 1   
    71    40    63 1   
@<TRIPOS>SUBSTRUCTURE
     1 VZ6         1 TEMP              0 ****  ****    0 ROOT
