@<TRIPOS>MOLECULE
VZ6
   65    71     1     0     0
SMALL
No Charge or Current Charge


@<TRIPOS>ATOM
      1 C18         41.8210    29.2800     0.5240 ca         1 VZ6       0.101500
      2 C13         40.6130    27.1200     1.2540 c5         1 VZ6       0.288300
      3 C10         43.6980    25.8690     2.2670 c3         1 VZ6       0.236600
      4 C15         40.8980    29.2580     2.5560 cc         1 VZ6       0.449700
      5 C17         41.9350    30.5030     1.1410 ca         1 VZ6      -0.085600
      6 C2          45.9630    25.9070    -0.6960 c5         1 VZ6       0.187300
      7 C20         42.8850    30.1330    -1.3230 ca         1 VZ6       0.154900
      8 C22         42.5720    31.5510     0.4410 ca         1 VZ6       0.438900
      9 C24         40.7910    26.3890    -0.1030 c5         1 VZ6       0.113300
     10 C28         46.6710    27.7140    -2.2340 c5         1 VZ6      -0.088400
     11 C29         47.2150    27.9380    -0.7860 c5         1 VZ6       0.043300
     12 C3          45.9410    26.3160    -2.1970 c5         1 VZ6      -0.114700
     13 C31         46.6620    30.3860    -0.2930 cc         1 VZ6       0.429400
     14 C33         48.6510    31.2170    -0.1500 cd         1 VZ6       0.155500
     15 C34         48.8080    29.8710    -0.3770 cc         1 VZ6       0.106400
     16 C36         51.0900    30.0070    -0.3540 cd         1 VZ6       0.476800
     17 C38         49.8630    32.0750    -0.0010 c          1 VZ6       0.515500
     18 C4          44.5110    26.3440    -2.7850 c3         1 VZ6       0.239600
     19 C40         46.0450    27.2950     0.0020 c5         1 VZ6       0.204300
     20 C8          42.2770    25.9040     0.0260 c5         1 VZ6       0.206300
     21 C9          42.3540    25.5420     1.5530 c5         1 VZ6       0.138300
     22 F1          47.0850    25.1070    -0.4270 f          1 VZ6      -0.276000
     23 F25         39.8890    25.3130    -0.1910 f          1 VZ6      -0.256000
     24 N14         41.1610    28.4760     1.4260 na         1 VZ6      -0.300300
     25 N16         41.3600    30.5160     2.4140 nd         1 VZ6      -0.561100
     26 N19         42.2900    29.0750    -0.7250 nb         1 VZ6      -0.209000
     27 N21         43.0490    31.3710    -0.8000 nb         1 VZ6      -0.330000
     28 N23         42.7150    32.8020     0.9540 nv         1 VZ6      -1.078900
     29 N30         47.5470    29.3360    -0.4780 na         1 VZ6      -0.131500
     30 N32         47.2990    31.5390    -0.1070 nd         1 VZ6      -0.607000
     31 N35         50.0210    29.2180    -0.4920 nc         1 VZ6      -0.583100
     32 N37         51.0230    31.3600    -0.1200 ns         1 VZ6      -0.434400
     33 O11         44.0390    27.2370     2.0190 os         1 VZ6      -0.622400
     34 O12         41.2430    26.2280     2.2000 os         1 VZ6      -0.443000
     35 O39         49.8670    33.2830     0.2020 o          1 VZ6      -0.561000
     36 O41         46.3930    27.0840     1.3900 os         1 VZ6      -0.571400
     37 O5          43.9920    25.0140    -2.7000 os         1 VZ6      -0.598400
     38 O7          42.5040    24.6970    -0.7540 os         1 VZ6      -0.585400
     39 P42         45.4640    27.8240     2.4810 p5         1 VZ6       1.397800
     40 P6          42.4380    24.7390    -2.3740 p5         1 VZ6       1.409800
     41 H1          39.5450    27.2120     1.4860 h2         1 VZ6       0.090700
     42 H2          43.5860    25.6830     3.3430 h1         1 VZ6       0.034200
     43 H3          44.4760    25.1960     1.8840 h1         1 VZ6       0.034200
     44 H4          40.3680    28.8660     3.4180 h5         1 VZ6       0.127800
     45 H5          45.0750    25.3400    -0.3940 h1         1 VZ6       0.100700
     46 H6          43.2690    29.9720    -2.3290 h5         1 VZ6       0.025100
     47 H7          40.6180    27.0560    -0.9550 h1         1 VZ6       0.127700
     48 H8          47.4800    27.7360    -2.9740 hc         1 VZ6       0.042200
     49 H9          45.9730    28.5130    -2.5170 hc         1 VZ6       0.042200
     50 H10         48.1210    27.3350    -0.6370 h1         1 VZ6       0.102700
     51 H11         46.4970    25.5830    -2.7950 hc         1 VZ6       0.070700
     52 H12         45.5880    30.2490    -0.3290 h5         1 VZ6       0.060100
     53 H13         52.1040    29.6310    -0.4180 h5         1 VZ6       0.027800
     54 H14         44.5540    26.6700    -3.8320 h1         1 VZ6       0.016200
     55 H15         43.8970    27.0600    -2.2260 h1         1 VZ6       0.016200
     56 H16         45.1130    27.8680    -0.1090 h1         1 VZ6       0.045700
     57 H17         43.0040    26.6740    -0.2500 h1         1 VZ6       0.049700
     58 H18         42.1770    24.4670     1.6830 h1         1 VZ6       0.062700
     59 H19         42.9060    33.5640     0.3090 hn         1 VZ6       0.499500
     60 H20         42.1760    33.0250     1.7860 hn         1 VZ6       0.499500
     61 H21         51.8800    31.8880    -0.0280 hn         1 VZ6       0.304500
     62 O26         41.5690    25.8220    -2.9160 o          1 VZ6      -0.811500
     63 O27         42.0380    23.4030    -2.9020 o          1 VZ6      -0.811500
     64 O43         45.5210    29.3020     2.3170 o          1 VZ6      -0.805000
     65 O44         45.8000    27.3980     3.8700 o          1 VZ6      -0.805000
@<TRIPOS>BOND
     1     1     5 ar  
     2     1    24 1   
     3     1    26 ar  
     4     2     9 1   
     5     2    24 1   
     6     2    34 1   
     7     2    41 1   
     8     3    21 1   
     9     3    33 1   
    10     3    42 1   
    11     3    43 1   
    12     4    24 1   
    13     4    25 2   
    14     4    44 1   
    15     5     8 ar  
    16     5    25 1   
    17     6    12 1   
    18     6    19 1   
    19     6    22 1   
    20     6    45 1   
    21     7    26 ar  
    22     7    27 ar  
    23     7    46 1   
    24     8    27 ar  
    25     8    28 1   
    26     9    20 1   
    27     9    23 1   
    28     9    47 1   
    29    10    11 1   
    30    10    12 1   
    31    10    48 1   
    32    10    49 1   
    33    11    19 1   
    34    11    29 1   
    35    11    50 1   
    36    12    18 1   
    37    12    51 1   
    38    13    29 1   
    39    13    30 2   
    40    13    52 1   
    41    14    15 2   
    42    14    17 1   
    43    14    30 1   
    44    15    29 1   
    45    15    31 1   
    46    16    31 2   
    47    16    32 1   
    48    16    53 1   
    49    17    32 1   
    50    17    35 2   
    51    18    37 1   
    52    18    54 1   
    53    18    55 1   
    54    19    36 1   
    55    19    56 1   
    56    20    21 1   
    57    20    38 1   
    58    20    57 1   
    59    21    34 1   
    60    21    58 1   
    61    28    59 1   
    62    28    60 1   
    63    32    61 1   
    64    33    39 1   
    65    36    39 1   
    66    37    40 1   
    67    38    40 1   
    68    39    64 1   
    69    39    65 1   
    70    40    62 1   
    71    40    63 1   
@<TRIPOS>SUBSTRUCTURE
     1 VZ6         1 TEMP              0 ****  ****    0 ROOT
