@<TRIPOS>MOLECULE
VZ7
   27    27     1     0     0
SMALL
abcg2


@<TRIPOS>ATOM
      1 C29         26.1920    24.6380   -34.8120 c3         1 VZ7      -0.077100
      2 C01         24.1020    25.9080   -35.2250 c3         1 VZ7      -0.077100
      3 C02         24.6790    24.5070   -34.9870 c3         1 VZ7      -0.015700
      4 C03         24.0650    23.9640   -33.6910 c3         1 VZ7       0.215600
      5 C05         24.1090    21.9880   -32.3300 c          1 VZ7       0.824100
      6 C30         24.3030    23.6010   -36.1540 ca         1 VZ7      -0.005300
      7 C31         22.9550    23.3710   -36.4360 ca         1 VZ7      -0.092000
      8 C32         22.5880    22.5580   -37.4930 ca         1 VZ7       0.123000
      9 C34         23.5310    21.9500   -38.3070 ca         1 VZ7      -0.123000
     10 C35         24.8690    22.1790   -38.0320 ca         1 VZ7      -0.110000
     11 C36         25.2510    22.9920   -36.9710 ca         1 VZ7      -0.100000
     12 O04         24.5240    22.6530   -33.4830 os         1 VZ7      -0.544100
     13 O28         23.3510    22.5960   -31.5630 o          1 VZ7      -0.719000
     14 CL3         20.9000    22.2920   -37.8070 cl         1 VZ7      -0.240000
     15 H20         26.6780    23.6810   -34.6230 hc         1 VZ7       0.028867
     16 H21         26.6610    25.0880   -35.6890 hc         1 VZ7       0.028867
     17 H22         26.4040    25.2910   -33.9640 hc         1 VZ7       0.028867
     18 H23         23.0150    25.8990   -35.3180 hc         1 VZ7       0.028867
     19 H24         24.3560    26.5710   -34.3950 hc         1 VZ7       0.028867
     20 H25         24.5110    26.3460   -36.1370 hc         1 VZ7       0.028867
     21 H26         24.3530    24.6330   -32.8710 h1         1 VZ7       0.015700
     22 H27         22.9710    24.0010   -33.7550 h1         1 VZ7       0.015700
     23 H33         22.1810    23.8240   -35.8290 ha         1 VZ7       0.130000
     24 H34         23.2310    21.3160   -39.1300 ha         1 VZ7       0.112000
     25 H35         25.6260    21.7160   -38.6520 ha         1 VZ7       0.101000
     26 H36         26.3060    23.1400   -36.7910 ha         1 VZ7       0.114000
     27 OXT         24.5790    20.8490   -32.2470 o          1 VZ7      -0.719000
@<TRIPOS>BOND
     1     1     3 1   
     2     1    15 1   
     3     1    16 1   
     4     1    17 1   
     5     2     3 1   
     6     2    18 1   
     7     2    19 1   
     8     2    20 1   
     9     3     4 1   
    10     3     6 1   
    11     4    12 1   
    12     4    21 1   
    13     4    22 1   
    14     5    12 1   
    15     5    13 1   
    16     5    27 1   
    17     6     7 ar  
    18     6    11 ar  
    19     7     8 ar  
    20     7    23 1   
    21     8     9 ar  
    22     8    14 1   
    23     9    10 ar  
    24     9    24 1   
    25    10    11 ar  
    26    10    25 1   
    27    11    26 1   
@<TRIPOS>SUBSTRUCTURE
     1 VZ7         1 TEMP              0 ****  ****    0 ROOT
