@<TRIPOS>MOLECULE
VZ7
   27    27     1     0     0
SMALL
No Charge or Current Charge


@<TRIPOS>ATOM
      1 C29         26.2280    24.6640   -34.7800 c3         1 VZ7      -0.077100
      2 C01         24.1210    25.9440   -35.2490 c3         1 VZ7      -0.077100
      3 C02         24.6890    24.5240   -34.9760 c3         1 VZ7      -0.015700
      4 C03         24.0620    23.9820   -33.6530 c3         1 VZ7       0.215600
      5 C05         24.0850    21.9720   -32.3130 c          1 VZ7       0.824100
      6 C30         24.3040    23.6020   -36.1670 ca         1 VZ7      -0.005300
      7 C31         22.9380    23.3410   -36.4330 ca         1 VZ7      -0.092000
      8 C32         22.5520    22.5180   -37.5020 ca         1 VZ7       0.123000
      9 C34         23.5200    21.9390   -38.3340 ca         1 VZ7      -0.123000
     10 C35         24.8790    22.1860   -38.0920 ca         1 VZ7      -0.110000
     11 C36         25.2690    23.0100   -37.0220 ca         1 VZ7      -0.100000
     12 O04         24.5190    22.6330   -33.4230 os         1 VZ7      -0.544100
     13 O28         23.3240    22.5210   -31.5320 o          1 VZ7      -0.719000
     14 Cl3         20.8460    22.2140   -37.8030 cl         1 VZ7      -0.240000
     15 H20         26.7000    23.6900   -34.6040 hc         1 VZ7       0.028867
     16 H21         26.6990    25.1230   -35.6580 hc         1 VZ7       0.028867
     17 H22         26.4540    25.3010   -33.9160 hc         1 VZ7       0.028867
     18 H23         23.0270    25.9340   -35.3210 hc         1 VZ7       0.028867
     19 H24         24.3940    26.6370   -34.4430 hc         1 VZ7       0.028867
     20 H25         24.5170    26.3450   -36.1900 hc         1 VZ7       0.028867
     21 H26         24.3590    24.6340   -32.8200 h1         1 VZ7       0.015700
     22 H27         22.9670    24.0080   -33.7210 h1         1 VZ7       0.015700
     23 H33         22.1620    23.7770   -35.8110 ha         1 VZ7       0.130000
     24 H34         23.2180    21.3020   -39.1620 ha         1 VZ7       0.112000
     25 H35         25.6340    21.7400   -38.7360 ha         1 VZ7       0.101000
     26 H36         26.3320    23.1740   -36.8750 ha         1 VZ7       0.114000
     27 OXT         24.4950    20.8360   -32.1560 o          1 VZ7      -0.719000
@<TRIPOS>BOND
     1     1     3 1   
     2     1    15 1   
     3     1    16 1   
     4     1    17 1   
     5     2     3 1   
     6     2    18 1   
     7     2    19 1   
     8     2    20 1   
     9     3     4 1   
    10     3     6 1   
    11     4    12 1   
    12     4    21 1   
    13     4    22 1   
    14     5    12 1   
    15     5    13 1   
    16     5    27 1   
    17     6     7 ar  
    18     6    11 ar  
    19     7     8 ar  
    20     7    23 1   
    21     8     9 ar  
    22     8    14 1   
    23     9    10 ar  
    24     9    24 1   
    25    10    11 ar  
    26    10    25 1   
    27    11    26 1   
@<TRIPOS>SUBSTRUCTURE
     1 VZ7         1 TEMP              0 ****  ****    0 ROOT
