@<TRIPOS>MOLECULE
VZ9
   36    37     1     0     0
SMALL
No Charge or Current Charge


@<TRIPOS>ATOM
      1 N1          23.5730     4.2240   -36.6670 n3         1 VZ9      -0.730600
      2 C7          23.2880     6.6870   -36.0510 c6         1 VZ9       0.148300
      3 C8          23.7240     5.6490   -37.1330 c6         1 VZ9       0.149800
      4 C9          22.4620     4.0820   -35.6580 c6         1 VZ9       0.149800
      5 C1          17.9100     7.8700   -33.9880 ca         1 VZ9      -0.150500
      6 C5          19.5220     7.5160   -35.7880 ca         1 VZ9      -0.102300
      7 C4          18.4770     7.0710   -36.6240 ca         1 VZ9      -0.072000
      8 C3          17.1560     7.0260   -36.1430 ca         1 VZ9      -0.150500
      9 C2          16.8770     7.4260   -34.8280 ca         1 VZ9       0.165000
     10 F           15.6080     7.3820   -34.3670 f          1 VZ9      -0.186000
     11 C           19.2310     7.9150   -34.4670 ca         1 VZ9      -0.072000
     12 N           21.8380     6.5530   -35.6700 n3         1 VZ9      -0.731600
     13 C10         21.3360     5.1450   -35.8530 c6         1 VZ9       0.148300
     14 C11         24.8530     3.6030   -36.2240 c3         1 VZ9       0.162800
     15 C12         24.7800     2.0790   -35.9260 c3         1 VZ9       0.158600
     16 O           26.0780     1.5640   -35.5820 oh         1 VZ9      -0.673000
     17 H2          23.9160     6.5320   -35.1610 h1         1 VZ9       0.048950
     18 H3          23.5090     7.7030   -36.4110 h1         1 VZ9       0.048950
     19 H4          24.7600     5.8560   -37.4390 h1         1 VZ9       0.049200
     20 H5          23.1020     5.8110   -38.0260 h1         1 VZ9       0.049200
     21 H6          22.0210     3.0770   -35.7190 h1         1 VZ9       0.049200
     22 H7          22.8550     4.1950   -34.6360 h1         1 VZ9       0.049200
     23 H11         18.6890     6.7580   -37.6450 ha         1 VZ9       0.121000
     24 H12         16.3510     6.6820   -36.7870 ha         1 VZ9       0.132000
     25 H13         20.0330     8.2550   -33.8140 ha         1 VZ9       0.121000
     26 H15         20.5190     4.9390   -35.1450 h1         1 VZ9       0.048950
     27 H16         20.9210     5.0120   -36.8630 h1         1 VZ9       0.048950
     28 H17         25.6120     3.7480   -37.0050 h1         1 VZ9       0.044700
     29 H18         25.2200     4.1140   -35.3230 h1         1 VZ9       0.044700
     30 H19         24.0760     1.9020   -35.1020 h1         1 VZ9       0.028200
     31 H20         24.3920     1.5620   -36.8140 h1         1 VZ9       0.028200
     32 H21         25.9690     0.6000   -35.4200 ho         1 VZ9       0.444000
     33 C6          20.9580     7.5640   -36.3020 c3         1 VZ9       0.219100
     34 H8          17.6870     8.1770   -32.9690 ha         1 VZ9       0.132000
     35 H9          20.9560     7.4310   -37.3930 h1         1 VZ9       0.039200
     36 H10         21.3520     8.5710   -36.1070 h1         1 VZ9       0.039200
@<TRIPOS>BOND
     1     1     3 1   
     2     1     4 1   
     3     1    14 1   
     4     2     3 1   
     5     2    12 1   
     6     2    17 1   
     7     2    18 1   
     8     3    19 1   
     9     3    20 1   
    10     4    13 1   
    11     4    21 1   
    12     4    22 1   
    13     5     9 ar  
    14     5    11 ar  
    15     5    34 1   
    16     6     7 ar  
    17     6    11 ar  
    18     6    33 1   
    19     7     8 ar  
    20     7    23 1   
    21     8     9 ar  
    22     8    24 1   
    23     9    10 1   
    24    11    25 1   
    25    12    13 1   
    26    12    33 1   
    27    13    26 1   
    28    13    27 1   
    29    14    15 1   
    30    14    28 1   
    31    14    29 1   
    32    15    16 1   
    33    15    30 1   
    34    15    31 1   
    35    16    32 1   
    36    33    35 1   
    37    33    36 1   
@<TRIPOS>SUBSTRUCTURE
     1 VZ9         1 TEMP              0 ****  ****    0 ROOT
