@<TRIPOS>MOLECULE
VZ9
   36    37     1     0     0
SMALL
abcg2


@<TRIPOS>ATOM
      1 N1          23.5520     4.2230   -36.6390 n3         1 VZ9      -0.730600
      2 C7          23.2400     6.6280   -36.0850 c6         1 VZ9       0.148300
      3 C8          23.6920     5.6090   -37.1270 c6         1 VZ9       0.149800
      4 C9          22.4210     4.0940   -35.7020 c6         1 VZ9       0.149800
      5 C1          18.0760     7.7460   -33.9310 ca         1 VZ9      -0.150500
      6 C5          19.5560     7.4600   -35.8320 ca         1 VZ9      -0.102300
      7 C4          18.4530     7.1580   -36.6250 ca         1 VZ9      -0.072000
      8 C3          17.1640     7.1470   -36.0960 ca         1 VZ9      -0.150500
      9 C2          17.0060     7.4410   -34.7570 ca         1 VZ9       0.165000
     10 F           15.7540     7.4300   -34.2250 f          1 VZ9      -0.186000
     11 C           19.3510     7.7540   -34.4820 ca         1 VZ9      -0.072000
     12 N           21.8100     6.4720   -35.7550 n3         1 VZ9      -0.731600
     13 C10         21.3360     5.1060   -36.0100 c6         1 VZ9       0.148300
     14 C11         24.7850     3.6930   -36.0710 c3         1 VZ9       0.162800
     15 C12         24.7300     2.1850   -35.8920 c3         1 VZ9       0.158600
     16 O           26.0100     1.7640   -35.4070 oh         1 VZ9      -0.673000
     17 H2          23.8390     6.5020   -35.1770 h1         1 VZ9       0.048950
     18 H3          23.4160     7.6420   -36.4460 h1         1 VZ9       0.048950
     19 H4          24.7340     5.7820   -37.4000 h1         1 VZ9       0.049200
     20 H5          23.0980     5.7360   -38.0360 h1         1 VZ9       0.049200
     21 H6          22.0020     3.0880   -35.7630 h1         1 VZ9       0.049200
     22 H7          22.7560     4.2410   -34.6620 h1         1 VZ9       0.049200
     23 H11         18.5980     6.9220   -37.6720 ha         1 VZ9       0.121000
     24 H12         16.3030     6.9100   -36.7070 ha         1 VZ9       0.132000
     25 H13         20.2010     7.9820   -33.8520 ha         1 VZ9       0.121000
     26 H15         20.4610     4.9050   -35.3890 h1         1 VZ9       0.048950
     27 H16         21.0170     4.9820   -37.0580 h1         1 VZ9       0.048950
     28 H17         25.6070     3.9210   -36.7520 h1         1 VZ9       0.044700
     29 H18         25.0230     4.1560   -35.0970 h1         1 VZ9       0.044700
     30 H19         23.9490     1.9030   -35.1790 h1         1 VZ9       0.028200
     31 H20         24.5020     1.7140   -36.8540 h1         1 VZ9       0.028200
     32 H21         26.0070     0.8020   -35.3450 ho         1 VZ9       0.444000
     33 C6          20.9540     7.4630   -36.4030 c3         1 VZ9       0.219100
     34 H8          17.9070     7.9730   -32.8870 ha         1 VZ9       0.132000
     35 H9          20.8940     7.3030   -37.4920 h1         1 VZ9       0.039200
     36 H10         21.4060     8.4450   -36.2440 h1         1 VZ9       0.039200
@<TRIPOS>BOND
     1     1     3 1   
     2     1     4 1   
     3     1    14 1   
     4     2     3 1   
     5     2    12 1   
     6     2    17 1   
     7     2    18 1   
     8     3    19 1   
     9     3    20 1   
    10     4    13 1   
    11     4    21 1   
    12     4    22 1   
    13     5     9 ar  
    14     5    11 ar  
    15     5    34 1   
    16     6     7 ar  
    17     6    11 ar  
    18     6    33 1   
    19     7     8 ar  
    20     7    23 1   
    21     8     9 ar  
    22     8    24 1   
    23     9    10 1   
    24    11    25 1   
    25    12    13 1   
    26    12    33 1   
    27    13    26 1   
    28    13    27 1   
    29    14    15 1   
    30    14    28 1   
    31    14    29 1   
    32    15    16 1   
    33    15    30 1   
    34    15    31 1   
    35    16    32 1   
    36    33    35 1   
    37    33    36 1   
@<TRIPOS>SUBSTRUCTURE
     1 VZ9         1 TEMP              0 ****  ****    0 ROOT
