@<TRIPOS>MOLECULE
VZA
   21    21     1     0     0
SMALL
No Charge or Current Charge


@<TRIPOS>ATOM
      1 C4         166.7060   135.4230    87.1590 c2         1 VZA      -0.247800
      2 C5         167.8630   136.1230    87.1910 c2         1 VZA      -0.199200
      3 C6         168.0270   137.4620    87.8980 c6         1 VZA       0.187000
      4 C8         165.7390   137.2010    88.7350 c6         1 VZA       0.159800
      5 C1         165.8930   134.2680    84.6210 c3         1 VZA      -0.468100
      6 C9         165.4470   135.9740    87.8310 c6         1 VZA      -0.018200
      7 N7         166.7170   138.1140    88.1030 n7         1 VZA      -0.861400
      8 O10        167.8740   133.1420    86.0580 o          1 VZA      -0.838500
      9 O3         165.4520   132.9480    86.8890 o          1 VZA      -0.838500
     10 P2         166.5340   133.7770    86.2690 p5         1 VZA       1.277600
     11 H1         168.7590   135.7380    86.7010 ha         1 VZA       0.193000
     12 H2         168.5090   137.3000    88.8740 h1         1 VZA       0.016700
     13 H3         168.6780   138.1240    87.3090 h1         1 VZA       0.016700
     14 H4         164.8030   137.7420    88.9390 h1         1 VZA       0.013700
     15 H5         166.1430   136.8580    89.6990 h1         1 VZA       0.013700
     16 H6         164.9290   134.7750    84.7380 hc         1 VZA       0.037033
     17 H7         166.6020   134.9510    84.1420 hc         1 VZA       0.037033
     18 H8         165.7620   133.3810    83.9930 hc         1 VZA       0.037033
     19 H9         164.7240   136.2580    87.0540 hc         1 VZA       0.051200
     20 H10        164.9630   135.1950    88.4350 hc         1 VZA       0.051200
     21 H11        166.8530   138.9310    88.7100 hn         1 VZA       0.380000
@<TRIPOS>BOND
     1     1     2 2   
     2     1     6 1   
     3     1    10 1   
     4     2     3 1   
     5     2    11 1   
     6     3     7 1   
     7     3    12 1   
     8     3    13 1   
     9     4     6 1   
    10     4     7 1   
    11     4    14 1   
    12     4    15 1   
    13     5    10 1   
    14     5    16 1   
    15     5    17 1   
    16     5    18 1   
    17     6    19 1   
    18     6    20 1   
    19     7    21 1   
    20     8    10 1   
    21     9    10 1   
@<TRIPOS>SUBSTRUCTURE
     1 VZA         1 TEMP              0 ****  ****    0 ROOT
