@<TRIPOS>MOLECULE
VZA
   21    21     1     0     0
SMALL
abcg2


@<TRIPOS>ATOM
      1 C4         166.7220   135.4610    87.1170 c2         1 VZA      -0.247800
      2 C5         167.8870   136.0920    87.2780 c2         1 VZA      -0.199200
      3 C6         168.0290   137.4220    87.9550 c6         1 VZA       0.187000
      4 C8         165.7380   137.1590    88.6750 c6         1 VZA       0.159800
      5 C1         165.7690   134.2590    84.7060 c3         1 VZA      -0.468100
      6 C9         165.4450   136.0580    87.6620 c6         1 VZA      -0.018200
      7 N7         166.7320   138.0780    88.1180 n7         1 VZA      -0.861400
      8 O10        168.0310   133.3710    85.9340 o          1 VZA      -0.838500
      9 O3         165.7440   132.9330    87.0800 o          1 VZA      -0.838500
     10 P2         166.6340   133.8470    86.2640 p5         1 VZA       1.277600
     11 H1         168.8000   135.6350    86.9120 ha         1 VZA       0.193000
     12 H2         168.5470   137.2710    88.9190 h1         1 VZA       0.016700
     13 H3         168.6800   138.0680    87.3580 h1         1 VZA       0.016700
     14 H4         164.8310   137.7200    88.9060 h1         1 VZA       0.013700
     15 H5         166.0890   136.6960    89.6120 h1         1 VZA       0.013700
     16 H6         164.7920   134.7000    84.9120 hc         1 VZA       0.037033
     17 H7         166.3580   134.9620    84.1140 hc         1 VZA       0.037033
     18 H8         165.6250   133.3430    84.1290 hc         1 VZA       0.037033
     19 H9         164.8410   136.4580    86.8400 hc         1 VZA       0.051200
     20 H10        164.8470   135.2710    88.1290 hc         1 VZA       0.051200
     21 H11        166.8360   138.8800    88.7280 hn         1 VZA       0.380000
@<TRIPOS>BOND
     1     1     2 2   
     2     1     6 1   
     3     1    10 1   
     4     2     3 1   
     5     2    11 1   
     6     3     7 1   
     7     3    12 1   
     8     3    13 1   
     9     4     6 1   
    10     4     7 1   
    11     4    14 1   
    12     4    15 1   
    13     5    10 1   
    14     5    16 1   
    15     5    17 1   
    16     5    18 1   
    17     6    19 1   
    18     6    20 1   
    19     7    21 1   
    20     8    10 1   
    21     9    10 1   
@<TRIPOS>SUBSTRUCTURE
     1 VZA         1 TEMP              0 ****  ****    0 ROOT
