@<TRIPOS>MOLECULE
VZC
   23    23     1     0     0
SMALL
No Charge or Current Charge


@<TRIPOS>ATOM
      1 N1          47.3330    30.1130    26.0900 n1         1 VZC      -0.441000
      2 C7          45.4890    27.1870    26.4580 c          1 VZC       0.613100
      3 C8          45.3260    28.6400    26.9140 c3         1 VZC      -0.097300
      4 C9          46.4520    29.4450    26.4560 c1         1 VZC       0.310900
      5 C1          43.5030    27.2700    24.8700 ca         1 VZC      -0.066000
      6 C5          41.3550    28.3610    25.3000 ca         1 VZC      -0.102000
      7 C6          42.4940    27.6820    25.7670 ca         1 VZC      -0.110500
      8 C4          41.2330    28.6740    23.9370 ca         1 VZC      -0.105000
      9 C3          42.2600    28.3230    23.0460 ca         1 VZC      -0.102000
     10 C2          43.3980    27.6430    23.5140 ca         1 VZC      -0.110500
     11 O           46.3240    26.4730    27.0060 o          1 VZC      -0.579100
     12 N           44.7360    26.7020    25.3520 n          1 VZC      -0.249400
     13 C           45.2360    25.4890    24.6630 c3         1 VZC       0.093300
     14 H1          44.4260    29.1110    26.5170 hc         1 VZC       0.090200
     15 H2          45.3160    28.6720    28.0080 hc         1 VZC       0.090200
     16 H3          40.5710    28.6500    25.9970 ha         1 VZC       0.121000
     17 H4          42.5780    27.4530    26.8280 ha         1 VZC       0.126000
     18 H5          40.3540    29.2030    23.5760 ha         1 VZC       0.120000
     19 H6          42.1800    28.5890    21.9940 ha         1 VZC       0.121000
     20 H7          44.1990    27.4080    22.8170 ha         1 VZC       0.126000
     21 H8          45.3340    24.6650    25.3800 h1         1 VZC       0.050033
     22 H9          44.5380    25.1800    23.8740 h1         1 VZC       0.050033
     23 H10         46.2150    25.6960    24.2130 h1         1 VZC       0.050033
@<TRIPOS>BOND
     1     1     4 3   
     2     2     3 1   
     3     2    11 2   
     4     2    12 1   
     5     3     4 1   
     6     3    14 1   
     7     3    15 1   
     8     5     7 ar  
     9     5    10 ar  
    10     5    12 1   
    11     6     7 ar  
    12     6     8 ar  
    13     6    16 1   
    14     7    17 1   
    15     8     9 ar  
    16     8    18 1   
    17     9    10 ar  
    18     9    19 1   
    19    10    20 1   
    20    12    13 1   
    21    13    21 1   
    22    13    22 1   
    23    13    23 1   
@<TRIPOS>SUBSTRUCTURE
     1 VZC         1 TEMP              0 ****  ****    0 ROOT
