@<TRIPOS>MOLECULE
VZC
   23    23     1     0     0
SMALL
abcg2


@<TRIPOS>ATOM
      1 N1          47.5550    30.0570    27.2150 n1         1 VZC      -0.441000
      2 C7          45.7230    27.3460    26.0530 c          1 VZC       0.613100
      3 C8          45.4050    28.7850    26.4830 c3         1 VZC      -0.097300
      4 C9          46.6040    29.4940    26.8970 c1         1 VZC       0.310900
      5 C1          43.5700    27.3890    24.8780 ca         1 VZC      -0.066000
      6 C5          41.3110    28.1070    25.2760 ca         1 VZC      -0.102000
      7 C6          42.4750    27.4950    25.7290 ca         1 VZC      -0.110500
      8 C4          41.2450    28.6030    23.9780 ca         1 VZC      -0.105000
      9 C3          42.3420    28.4850    23.1280 ca         1 VZC      -0.102000
     10 C2          43.5080    27.8760    23.5770 ca         1 VZC      -0.110500
     11 O           46.7720    26.8060    26.3890 o          1 VZC      -0.579100
     12 N           44.7670    26.7330    25.3270 n          1 VZC      -0.249400
     13 C           44.9560    25.3450    24.8990 c3         1 VZC       0.093300
     14 H1          44.9090    29.3490    25.6930 hc         1 VZC       0.090200
     15 H2          44.7120    28.7470    27.3290 hc         1 VZC       0.090200
     16 H3          40.4560    28.1920    25.9340 ha         1 VZC       0.121000
     17 H4          42.5450    27.0930    26.7320 ha         1 VZC       0.126000
     18 H5          40.3400    29.0800    23.6240 ha         1 VZC       0.120000
     19 H6          42.2880    28.8760    22.1200 ha         1 VZC       0.121000
     20 H7          44.3740    27.7790    22.9350 ha         1 VZC       0.126000
     21 H8          45.6120    24.8380    25.6010 h1         1 VZC       0.050033
     22 H9          43.9850    24.8540    24.8810 h1         1 VZC       0.050033
     23 H10         45.3970    25.3030    23.9010 h1         1 VZC       0.050033
@<TRIPOS>BOND
     1     1     4 3   
     2     2     3 1   
     3     2    11 2   
     4     2    12 1   
     5     3     4 1   
     6     3    14 1   
     7     3    15 1   
     8     5     7 ar  
     9     5    10 ar  
    10     5    12 1   
    11     6     7 ar  
    12     6     8 ar  
    13     6    16 1   
    14     7    17 1   
    15     8     9 ar  
    16     8    18 1   
    17     9    10 ar  
    18     9    19 1   
    19    10    20 1   
    20    12    13 1   
    21    13    21 1   
    22    13    22 1   
    23    13    23 1   
@<TRIPOS>SUBSTRUCTURE
     1 VZC         1 TEMP              0 ****  ****    0 ROOT
