@<TRIPOS>MOLECULE
VZD
   44    45     1     0     0
SMALL
abcg2


@<TRIPOS>ATOM
      1 N12         -2.8320    10.7830    11.5790 ns         1 VZD      -0.172000
      2 C15         -2.5980     9.9010    13.7940 ca         1 VZD      -0.108500
      3 C17         -0.7310    10.4500    15.1630 ca         1 VZD       0.153000
      4 C01        -10.4380    11.4060     7.0130 ca         1 VZD      -0.265500
      5 C02        -10.6610    10.0860     7.3890 ca         1 VZD       0.006500
      6 C03         -9.6050     9.3350     7.8690 ca         1 VZD      -0.131000
      7 C04         -8.3330     9.8950     7.9520 ca         1 VZD       0.288000
      8 C05         -8.1210    11.2080     7.5580 ca         1 VZD      -0.131000
      9 C06         -9.1780    11.9760     7.0920 ca         1 VZD       0.006500
     10 N07         -7.2310     9.1310     8.4190 nu         1 VZD      -0.898100
     11 C08         -5.9100    10.6240    10.2540 c3         1 VZD      -0.356400
     12 C09         -4.6390    10.6280     9.4030 c3         1 VZD       0.140000
     13 C11         -3.0050    11.9060    10.8140 c          1 VZD       0.661100
     14 O13         -2.4730    12.9740    11.0740 o          1 VZD      -0.618100
     15 C14         -2.1090    10.7210    12.7790 ca         1 VZD      -0.033000
     16 C16         -1.9090     9.7510    14.9870 ca         1 VZD      -0.130500
     17 C18         -0.2230    11.2710    14.1770 ca         1 VZD      -0.130500
     18 C19         -0.9080    11.4000    12.9770 ca         1 VZD      -0.108500
     19 O22        -12.6380    11.5000     5.5610 o          1 VZD      -0.539000
     20 O23        -11.2550    13.5720     5.8010 o          1 VZD      -0.539000
     21 N24        -12.6530    12.6290     7.7700 n8         1 VZD      -1.007100
     22 S25         -6.8980     9.1520    10.0600 s6         1 VZD       1.171100
     23 O26         -6.0610     7.9860    10.2980 o          1 VZD      -0.526000
     24 O27         -8.1160     9.3330    10.8310 o          1 VZD      -0.526000
     25 H1          -3.3430     9.9470    11.3470 hn         1 VZD       0.154000
     26 H2          -3.5310     9.3680    13.6550 ha         1 VZD       0.129000
     27 H3         -11.6460     9.6460     7.3210 ha         1 VZD       0.145000
     28 H4          -9.7690     8.3090     8.1720 ha         1 VZD       0.126500
     29 H5          -7.1250    11.6300     7.5890 ha         1 VZD       0.126500
     30 H6          -9.0040    12.9960     6.7820 ha         1 VZD       0.145000
     31 H7          -7.2080     8.1730     8.0780 hn         1 VZD       0.501000
     32 H8          -6.5440    11.4830    10.0320 h1         1 VZD       0.110700
     33 H9          -5.6890    10.6590    11.3240 h1         1 VZD       0.110700
     34 H10         -4.8990    10.6970     8.3490 h1         1 VZD       0.067700
     35 H11         -4.0890     9.6910     9.5080 h1         1 VZD       0.067700
     36 H12         -3.9740    12.6060     9.2120 hn         1 VZD       0.329500
     37 H13         -2.2940     9.1080    15.7680 ha         1 VZD       0.133500
     38 H14          0.7090    11.8000    14.3290 ha         1 VZD       0.133500
     39 H15         -0.4900    12.0220    12.2020 ha         1 VZD       0.129000
     40 H16        -12.2380    13.3420     8.3600 hn         1 VZD       0.478500
     41 H17        -13.6240    12.8510     7.5730 hn         1 VZD       0.478500
     42 F20         -0.0590    10.3210    16.3190 f          1 VZD      -0.179000
     43 N10         -3.7950    11.7520     9.7150 ns         1 VZD      -0.521900
     44 S21        -11.7970    12.3540     6.3870 sy         1 VZD       1.128600
@<TRIPOS>BOND
     1     1    13 1   
     2     1    15 1   
     3     1    25 1   
     4     2    15 ar  
     5     2    16 ar  
     6     2    26 1   
     7     3    16 ar  
     8     3    17 ar  
     9     3    42 1   
    10     4     5 ar  
    11     4     9 ar  
    12     4    44 1   
    13     5     6 ar  
    14     5    27 1   
    15     6     7 ar  
    16     6    28 1   
    17     7     8 ar  
    18     7    10 1   
    19     8     9 ar  
    20     8    29 1   
    21     9    30 1   
    22    10    22 1   
    23    10    31 1   
    24    11    12 1   
    25    11    22 1   
    26    11    32 1   
    27    11    33 1   
    28    12    34 1   
    29    12    35 1   
    30    12    43 1   
    31    13    14 2   
    32    13    43 1   
    33    15    18 ar  
    34    16    37 1   
    35    17    18 ar  
    36    17    38 1   
    37    18    39 1   
    38    19    44 2   
    39    20    44 2   
    40    21    40 1   
    41    21    41 1   
    42    21    44 1   
    43    22    23 2   
    44    22    24 2   
    45    36    43 1   
@<TRIPOS>SUBSTRUCTURE
     1 VZD         1 TEMP              0 ****  ****    0 ROOT
