@<TRIPOS>MOLECULE
VZD
   44    45     1     0     0
SMALL
No Charge or Current Charge


@<TRIPOS>ATOM
      1 N12         -2.9120    10.9270    11.5770 ns         1 VZD      -0.172000
      2 C15         -2.1770     9.6380    13.4890 ca         1 VZD      -0.108500
      3 C17         -0.5830    10.5160    15.1000 ca         1 VZD       0.153000
      4 C01        -10.3690    11.4750     7.0130 ca         1 VZD      -0.265500
      5 C02        -10.6640    10.1150     7.2360 ca         1 VZD       0.006500
      6 C03         -9.6870     9.2670     7.7860 ca         1 VZD      -0.131000
      7 C04         -8.4210     9.7660     8.1310 ca         1 VZD       0.288000
      8 C05         -8.1250    11.1190     7.8950 ca         1 VZD      -0.131000
      9 C06         -9.0940    11.9750     7.3430 ca         1 VZD       0.006500
     10 N07         -7.4720     8.8990     8.6620 nu         1 VZD      -0.898100
     11 C08         -5.9420    10.3810    10.4300 c3         1 VZD      -0.356400
     12 C09         -4.7450    10.4030     9.4660 c3         1 VZD       0.140000
     13 C11         -3.0840    11.9310    10.6340 c          1 VZD       0.661100
     14 O13         -2.5160    13.0110    10.6470 o          1 VZD      -0.618100
     15 C14         -2.1120    10.8360    12.7500 ca         1 VZD      -0.033000
     16 C16         -1.4150     9.4770    14.6610 ca         1 VZD      -0.130500
     17 C18         -0.5080    11.7140    14.3750 ca         1 VZD      -0.130500
     18 C19         -1.2700    11.8780    13.2030 ca         1 VZD      -0.108500
     19 O22        -12.6430    11.7980     5.6120 o          1 VZD      -0.539000
     20 O23        -10.9940    13.7520     5.7250 o          1 VZD      -0.539000
     21 N24        -12.3840    13.1390     7.6230 n8         1 VZD      -1.007100
     22 S25         -6.9370     8.9080    10.2320 s6         1 VZD       1.171100
     23 O26         -6.0800     7.7290    10.3440 o          1 VZD      -0.526000
     24 O27         -8.1390     9.0290    11.0550 o          1 VZD      -0.526000
     25 H1          -3.4650    10.1010    11.3980 hn         1 VZD       0.154000
     26 H2          -2.8200     8.8260    13.1560 ha         1 VZD       0.129000
     27 H3         -11.6440     9.7110     6.9840 ha         1 VZD       0.145000
     28 H4          -9.9250     8.2210     7.9530 ha         1 VZD       0.126500
     29 H5          -7.1410    11.5140     8.1160 ha         1 VZD       0.126500
     30 H6          -8.8470    13.0220     7.1700 ha         1 VZD       0.145000
     31 H7          -7.6920     7.9190     8.5410 hn         1 VZD       0.501000
     32 H8          -6.6060    11.2350    10.2690 h1         1 VZD       0.110700
     33 H9          -5.6130    10.3770    11.4740 h1         1 VZD       0.110700
     34 H10         -5.0980    10.3480     8.4270 h1         1 VZD       0.067700
     35 H11         -4.0930     9.5340     9.6370 h1         1 VZD       0.067700
     36 H12         -4.0870    12.3660     8.9320 hn         1 VZD       0.329500
     37 H13         -1.4690     8.5500    15.2260 ha         1 VZD       0.133500
     38 H14          0.1390    12.5160    14.7230 ha         1 VZD       0.133500
     39 H15         -1.1900    12.8170    12.6660 ha         1 VZD       0.129000
     40 H16        -12.3310    14.1390     7.4430 hn         1 VZD       0.478500
     41 H17        -13.3480    12.9310     7.3740 hn         1 VZD       0.478500
     42 F20          0.1500    10.3620    16.2250 f          1 VZD      -0.179000
     43 N10         -3.9700    11.6360     9.6240 ns         1 VZD      -0.521900
     44 S21        -11.6110    12.5630     6.3080 sy         1 VZD       1.128600
@<TRIPOS>BOND
     1     1    13 1   
     2     1    15 1   
     3     1    25 1   
     4     2    15 ar  
     5     2    16 ar  
     6     2    26 1   
     7     3    16 ar  
     8     3    17 ar  
     9     3    42 1   
    10     4     5 ar  
    11     4     9 ar  
    12     4    44 1   
    13     5     6 ar  
    14     5    27 1   
    15     6     7 ar  
    16     6    28 1   
    17     7     8 ar  
    18     7    10 1   
    19     8     9 ar  
    20     8    29 1   
    21     9    30 1   
    22    10    22 1   
    23    10    31 1   
    24    11    12 1   
    25    11    22 1   
    26    11    32 1   
    27    11    33 1   
    28    12    34 1   
    29    12    35 1   
    30    12    43 1   
    31    13    14 2   
    32    13    43 1   
    33    15    18 ar  
    34    16    37 1   
    35    17    18 ar  
    36    17    38 1   
    37    18    39 1   
    38    19    44 2   
    39    20    44 2   
    40    21    40 1   
    41    21    41 1   
    42    21    44 1   
    43    22    23 2   
    44    22    24 2   
    45    36    43 1   
@<TRIPOS>SUBSTRUCTURE
     1 VZD         1 TEMP              0 ****  ****    0 ROOT
