@<TRIPOS>MOLECULE
VZE
   78    81     1     0     0
SMALL
No Charge or Current Charge


@<TRIPOS>ATOM
      1 O1          21.3420    34.6770    35.6950 os         1 VZE      -0.240200
      2 C8          20.7770    32.3780    36.1990 ca         1 VZE      -0.083000
      3 C7          23.6640    35.0830    35.2630 ca         1 VZE      -0.158500
      4 C22         17.0960    30.6900    42.1280 ca         1 VZE      -0.066500
      5 C3          22.9620    34.3200    37.4670 ca         1 VZE      -0.158500
      6 C2          22.6450    34.6800    36.1420 ca         1 VZE       0.145100
      7 C4          24.3000    34.3440    37.9010 ca         1 VZE      -0.080000
      8 C5          25.3180    34.7350    37.0140 ca         1 VZE      -0.146000
      9 C6          25.0010    35.1070    35.6960 ca         1 VZE      -0.080000
     10 C1          20.4140    33.7360    36.0960 ca         1 VZE       0.061100
     11 C9          19.8260    31.4230    36.5970 ca         1 VZE      -0.117000
     12 C12         16.9610    28.9600    38.9580 c3         1 VZE       0.169800
     13 C10         18.5040    31.8110    36.8880 ca         1 VZE      -0.045300
     14 C13         15.4590    29.2240    39.2250 c3         1 VZE      -0.111400
     15 C17         13.5080    28.6670    42.6110 c3         1 VZE      -0.079400
     16 C15         13.2250    28.1780    40.0620 c3         1 VZE      -0.070400
     17 C14         14.7180    27.9570    39.7130 c3         1 VZE      -0.071400
     18 C18         13.1020    29.5950    43.7770 c3         1 VZE      -0.075400
     19 C21         18.0860    30.5690    41.1320 ca         1 VZE      -0.122300
     20 C19         13.5910    29.1000    45.1520 c3         1 VZE      -0.089100
     21 C20         17.8560    31.1720    39.7490 c3         1 VZE       0.222100
     22 C26         17.3910    27.8210    46.7580 ca         1 VZE       0.132100
     23 C27         16.3800    27.0020    47.2920 ca         1 VZE      -0.202000
     24 C28         15.5750    26.2260    46.4390 ca         1 VZE      -0.068000
     25 C29         15.7800    26.2650    45.0500 ca         1 VZE      -0.141000
     26 C30         16.7870    27.0830    44.5090 ca         1 VZE      -0.079000
     27 C25         17.5930    27.8710    45.3600 ca         1 VZE       0.058100
     28 C24         18.4340    29.3260    43.6340 ca         1 VZE       0.145100
     29 C23         17.2700    30.0710    43.3760 ca         1 VZE      -0.163500
     30 C31         19.4400    29.2330    42.6610 ca         1 VZE      -0.163500
     31 C32         19.2670    29.8510    41.4100 ca         1 VZE      -0.066500
     32 N           17.7840    30.1640    38.6530 n3         1 VZE      -0.728600
     33 C33         18.1390    33.1680    36.7720 ca         1 VZE      -0.200000
     34 C           19.0850    34.1280    36.3740 ca         1 VZE       0.124100
     35 O           18.7050    35.4380    36.2680 oh         1 VZE      -0.514100
     36 H1          21.7920    32.0620    35.9700 ha         1 VZE       0.131000
     37 H2          23.4160    35.3710    34.2450 ha         1 VZE       0.124000
     38 H3          16.1820    31.2470    41.9310 ha         1 VZE       0.116000
     39 H4          17.8720    28.3940    48.5250 ho         1 VZE       0.465000
     40 H5          22.1780    34.0270    38.1600 ha         1 VZE       0.124000
     41 H6          24.5460    34.0630    38.9230 ha         1 VZE       0.110500
     42 H7          26.3520    34.7550    37.3500 ha         1 VZE       0.113000
     43 H8          25.7900    35.4150    35.0120 ha         1 VZE       0.110500
     44 H9          20.1140    30.3780    36.6850 ha         1 VZE       0.133000
     45 H10         17.0390    28.2440    38.1280 h1         1 VZE       0.053200
     46 H11         17.3760    28.4450    39.8340 h1         1 VZE       0.053200
     47 H12         16.4830    31.2240    37.3450 h1         1 VZE       0.040700
     48 H13         17.4550    29.9790    36.5630 h1         1 VZE       0.040700
     49 H14         15.3570    30.0080    39.9800 hc         1 VZE       0.040700
     50 H15         14.9800    29.5950    38.3100 hc         1 VZE       0.040700
     51 H16         13.3190    30.1380    41.0190 hc         1 VZE       0.035200
     52 H17         11.8510    29.2380    41.3430 hc         1 VZE       0.035200
     53 H18         13.1530    27.6500    42.8180 hc         1 VZE       0.040700
     54 H19         14.6020    28.6220    42.5600 hc         1 VZE       0.040700
     55 H20         12.7100    28.5600    39.1720 hc         1 VZE       0.037700
     56 H21         12.7720    27.2040    40.2830 hc         1 VZE       0.037700
     57 H22         14.7800    27.1930    38.9280 hc         1 VZE       0.038700
     58 H23         15.2390    27.5410    40.5840 hc         1 VZE       0.038700
     59 H24         13.5010    30.6010    43.5970 hc         1 VZE       0.034700
     60 H25         12.0090    29.6860    43.8050 hc         1 VZE       0.034700
     61 H26         13.2620    29.7850    45.9430 hc         1 VZE       0.031367
     62 H27         13.1880    28.1040    45.3720 hc         1 VZE       0.031367
     63 H28         14.6840    29.0460    45.1820 hc         1 VZE       0.031367
     64 H29         18.6730    31.8790    39.5510 h1         1 VZE       0.038700
     65 H30         16.9310    31.7640    39.7700 h1         1 VZE       0.038700
     66 H31         16.2120    26.9600    48.3650 ha         1 VZE       0.116000
     67 H32         14.7920    25.5930    46.8550 ha         1 VZE       0.116000
     68 H33         15.1580    25.6620    44.3920 ha         1 VZE       0.121000
     69 H34         16.9410    27.1000    43.4330 ha         1 VZE       0.131000
     70 H35         16.4990    30.1600    44.1350 ha         1 VZE       0.125500
     71 H36         20.3410    28.6610    42.8660 ha         1 VZE       0.125500
     72 H37         20.0340    29.7530    40.6450 ha         1 VZE       0.116000
     73 H39         17.1180    33.4690    36.9960 ha         1 VZE       0.112000
     74 H40         17.7540    35.5050    36.4980 ho         1 VZE       0.464000
     75 C11         17.4810    30.7650    37.3300 c3         1 VZE       0.216100
     76 O2          18.5880    28.6720    44.8340 os         1 VZE      -0.236200
     77 C16         12.9400    29.1360    41.2490 c3         1 VZE      -0.072400
     78 O3          18.1630    28.5670    47.6050 oh         1 VZE      -0.512100
@<TRIPOS>BOND
     1     1     6 1   
     2     1    10 1   
     3     2    10 ar  
     4     2    11 ar  
     5     2    36 1   
     6     3     6 ar  
     7     3     9 ar  
     8     3    37 1   
     9     4    19 ar  
    10     4    29 ar  
    11     4    38 1   
    12     5     6 ar  
    13     5     7 ar  
    14     5    40 1   
    15     7     8 ar  
    16     7    41 1   
    17     8     9 ar  
    18     8    42 1   
    19     9    43 1   
    20    10    34 ar  
    21    11    13 ar  
    22    11    44 1   
    23    12    14 1   
    24    12    32 1   
    25    12    45 1   
    26    12    46 1   
    27    13    33 ar  
    28    13    75 1   
    29    14    17 1   
    30    14    49 1   
    31    14    50 1   
    32    15    18 1   
    33    15    53 1   
    34    15    54 1   
    35    15    77 1   
    36    16    17 1   
    37    16    55 1   
    38    16    56 1   
    39    16    77 1   
    40    17    57 1   
    41    17    58 1   
    42    18    20 1   
    43    18    59 1   
    44    18    60 1   
    45    19    21 1   
    46    19    31 ar  
    47    20    61 1   
    48    20    62 1   
    49    20    63 1   
    50    21    32 1   
    51    21    64 1   
    52    21    65 1   
    53    22    23 ar  
    54    22    27 ar  
    55    22    78 1   
    56    23    24 ar  
    57    23    66 1   
    58    24    25 ar  
    59    24    67 1   
    60    25    26 ar  
    61    25    68 1   
    62    26    27 ar  
    63    26    69 1   
    64    27    76 1   
    65    28    29 ar  
    66    28    30 ar  
    67    28    76 1   
    68    29    70 1   
    69    30    31 ar  
    70    30    71 1   
    71    31    72 1   
    72    32    75 1   
    73    33    34 ar  
    74    33    73 1   
    75    34    35 1   
    76    35    74 1   
    77    39    78 1   
    78    47    75 1   
    79    48    75 1   
    80    51    77 1   
    81    52    77 1   
@<TRIPOS>SUBSTRUCTURE
     1 VZE         1 TEMP              0 ****  ****    0 ROOT
