@<TRIPOS>MOLECULE
VZE
   78    81     1     0     0
SMALL
abcg2


@<TRIPOS>ATOM
      1 O1          22.0310    33.5650    35.7610 os         1 VZE      -0.240200
      2 C8          20.8720    31.5820    36.4080 ca         1 VZE      -0.083000
      3 C7          23.7760    35.0870    36.0770 ca         1 VZE      -0.158500
      4 C22         17.2000    29.9990    42.0410 ca         1 VZE      -0.066500
      5 C3          22.5750    34.2890    38.0110 ca         1 VZE      -0.158500
      6 C2          22.7680    34.3050    36.6340 ca         1 VZE       0.145100
      7 C4          23.3960    35.0630    38.8220 ca         1 VZE      -0.080000
      8 C5          24.4040    35.8460    38.2780 ca         1 VZE      -0.146000
      9 C6          24.5870    35.8510    36.9000 ca         1 VZE      -0.080000
     10 C1          20.8870    32.9500    36.1990 ca         1 VZE       0.061100
     11 C9          19.7030    30.9430    36.7910 ca         1 VZE      -0.117000
     12 C12         16.4060    29.0710    38.5960 c3         1 VZE       0.169800
     13 C10         18.5350    31.6760    36.9750 ca         1 VZE      -0.045300
     14 C13         15.0070    29.5220    39.0110 c3         1 VZE      -0.111400
     15 C17         13.1720    28.6930    42.0630 c3         1 VZE      -0.079400
     16 C15         12.6430    28.6900    39.5520 c3         1 VZE      -0.070400
     17 C14         14.0620    28.3310    39.1190 c3         1 VZE      -0.071400
     18 C18         12.9540    29.4060    43.3920 c3         1 VZE      -0.075400
     19 C21         17.9680    29.9410    40.8870 ca         1 VZE      -0.122300
     20 C19         13.5730    28.6660    44.5700 c3         1 VZE      -0.089100
     21 C20         17.6770    30.8350    39.7150 c3         1 VZE       0.222100
     22 C26         18.5300    28.3260    46.2140 ca         1 VZE       0.132100
     23 C27         17.8590    28.3620    47.4320 ca         1 VZE      -0.202000
     24 C28         16.7680    27.5330    47.6570 ca         1 VZE      -0.068000
     25 C29         16.3340    26.6560    46.6740 ca         1 VZE      -0.141000
     26 C30         17.0000    26.6160    45.4550 ca         1 VZE      -0.079000
     27 C25         18.0900    27.4370    45.2300 ca         1 VZE       0.058100
     28 C24         18.4800    28.2450    43.0550 ca         1 VZE       0.145100
     29 C23         17.4480    29.1690    43.1270 ca         1 VZE      -0.163500
     30 C31         19.2680    28.1730    41.9080 ca         1 VZE      -0.163500
     31 C32         19.0100    29.0140    40.8420 ca         1 VZE      -0.066500
     32 N           17.4360    30.0910    38.4900 n3         1 VZE      -0.728600
     33 C33         18.5590    33.0500    36.7700 ca         1 VZE      -0.200000
     34 C           19.7250    33.7020    36.3790 ca         1 VZE       0.124100
     35 O           19.8020    35.0280    36.1720 oh         1 VZE      -0.514100
     36 H1          21.7840    31.0170    36.2590 ha         1 VZE       0.131000
     37 H2          23.9170    35.0940    35.0030 ha         1 VZE       0.124000
     38 H3          16.3790    30.7040    42.1020 ha         1 VZE       0.116000
     39 H4          19.8060    29.6720    46.6660 ho         1 VZE       0.465000
     40 H5          21.8000    33.6810    38.4590 ha         1 VZE       0.124000
     41 H6          23.2410    35.0460    39.8930 ha         1 VZE       0.110500
     42 H7          25.0380    36.4450    38.9170 ha         1 VZE       0.113000
     43 H8          25.3680    36.4570    36.4580 ha         1 VZE       0.110500
     44 H9          19.7010    29.8740    36.9570 ha         1 VZE       0.133000
     45 H10         16.3490    28.5640    37.6270 h1         1 VZE       0.053200
     46 H11         16.7490    28.3140    39.3070 h1         1 VZE       0.053200
     47 H12         16.4740    31.7430    37.5450 h1         1 VZE       0.040700
     48 H13         16.9040    30.3890    36.5150 h1         1 VZE       0.040700
     49 H14         15.0590    30.0330    39.9770 hc         1 VZE       0.040700
     50 H15         14.6070    30.2490    38.2970 hc         1 VZE       0.040700
     51 H16         12.9820    30.4210    40.8020 hc         1 VZE       0.035200
     52 H17         11.4770    29.5940    41.1040 hc         1 VZE       0.035200
     53 H18         12.7660    27.6770    42.1250 hc         1 VZE       0.040700
     54 H19         14.2490    28.5790    41.8980 hc         1 VZE       0.040700
     55 H20         12.1760    29.3040    38.7750 hc         1 VZE       0.037700
     56 H21         12.0510    27.7700    39.6040 hc         1 VZE       0.037700
     57 H22         14.0140    27.8230    38.1500 hc         1 VZE       0.038700
     58 H23         14.4870    27.6010    39.8140 hc         1 VZE       0.038700
     59 H24         13.3740    30.4150    43.3310 hc         1 VZE       0.034700
     60 H25         11.8810    29.5360    43.5640 hc         1 VZE       0.034700
     61 H26         13.4110    29.1960    45.5100 hc         1 VZE       0.031367
     62 H27         13.1470    27.6670    44.6770 hc         1 VZE       0.031367
     63 H28         14.6500    28.5470    44.4420 hc         1 VZE       0.031367
     64 H29         18.5340    31.4920    39.5380 h1         1 VZE       0.038700
     65 H30         16.8390    31.5040    39.9690 h1         1 VZE       0.038700
     66 H31         18.1920    29.0420    48.2070 ha         1 VZE       0.116000
     67 H32         16.2600    27.5760    48.6110 ha         1 VZE       0.116000
     68 H33         15.4840    26.0110    46.8470 ha         1 VZE       0.121000
     69 H34         16.6800    25.9390    44.6720 ha         1 VZE       0.131000
     70 H35         16.8250    29.2460    44.0090 ha         1 VZE       0.125500
     71 H36         20.0780    27.4550    41.8570 ha         1 VZE       0.125500
     72 H37         19.6230    28.9430    39.9520 ha         1 VZE       0.116000
     73 H39         17.6530    33.6310    36.9200 ha         1 VZE       0.112000
     74 H40         18.9460    35.4430    36.3280 ho         1 VZE       0.464000
     75 C11         17.2520    30.9850    37.3640 c3         1 VZE       0.216100
     76 O2          18.7780    27.3600    44.0470 os         1 VZE      -0.236200
     77 C16         12.5370    29.4250    40.8880 c3         1 VZE      -0.072400
     78 O3          19.5880    29.1020    45.9190 oh         1 VZE      -0.512100
@<TRIPOS>BOND
     1     1     6 1   
     2     1    10 1   
     3     2    10 ar  
     4     2    11 ar  
     5     2    36 1   
     6     3     6 ar  
     7     3     9 ar  
     8     3    37 1   
     9     4    19 ar  
    10     4    29 ar  
    11     4    38 1   
    12     5     6 ar  
    13     5     7 ar  
    14     5    40 1   
    15     7     8 ar  
    16     7    41 1   
    17     8     9 ar  
    18     8    42 1   
    19     9    43 1   
    20    10    34 ar  
    21    11    13 ar  
    22    11    44 1   
    23    12    14 1   
    24    12    32 1   
    25    12    45 1   
    26    12    46 1   
    27    13    33 ar  
    28    13    75 1   
    29    14    17 1   
    30    14    49 1   
    31    14    50 1   
    32    15    18 1   
    33    15    53 1   
    34    15    54 1   
    35    15    77 1   
    36    16    17 1   
    37    16    55 1   
    38    16    56 1   
    39    16    77 1   
    40    17    57 1   
    41    17    58 1   
    42    18    20 1   
    43    18    59 1   
    44    18    60 1   
    45    19    21 1   
    46    19    31 ar  
    47    20    61 1   
    48    20    62 1   
    49    20    63 1   
    50    21    32 1   
    51    21    64 1   
    52    21    65 1   
    53    22    23 ar  
    54    22    27 ar  
    55    22    78 1   
    56    23    24 ar  
    57    23    66 1   
    58    24    25 ar  
    59    24    67 1   
    60    25    26 ar  
    61    25    68 1   
    62    26    27 ar  
    63    26    69 1   
    64    27    76 1   
    65    28    29 ar  
    66    28    30 ar  
    67    28    76 1   
    68    29    70 1   
    69    30    31 ar  
    70    30    71 1   
    71    31    72 1   
    72    32    75 1   
    73    33    34 ar  
    74    33    73 1   
    75    34    35 1   
    76    35    74 1   
    77    39    78 1   
    78    47    75 1   
    79    48    75 1   
    80    51    77 1   
    81    52    77 1   
@<TRIPOS>SUBSTRUCTURE
     1 VZE         1 TEMP              0 ****  ****    0 ROOT
