@<TRIPOS>MOLECULE
VZF
   58    60     1     0     0
SMALL
abcg2


@<TRIPOS>ATOM
      1 C4         -28.3540    18.2360   151.0690 ca         1 VZF      -0.205400
      2 C14        -28.2750    15.6580   153.7420 ca         1 VZF      -0.134300
      3 C5         -26.5240    19.5930   151.1780 c          1 VZF       0.590000
      4 C6         -26.3220    20.2740   148.7660 c3         1 VZF       0.137700
      5 C11        -30.4360    19.0100   145.9360 c3         1 VZF       0.138600
      6 C7         -27.2990    21.2890   148.1730 c3         1 VZF      -0.104600
      7 C8         -25.7260    19.3410   147.7160 c3         1 VZF      -0.104600
      8 C9         -30.0840    17.6290   146.4630 c3         1 VZF       0.235800
      9 C10        -31.8560    16.6440   147.9240 c3         1 VZF       0.235800
     10 C12        -31.8230    15.1690   147.5280 c3         1 VZF       0.138600
     11 C13        -29.2470    16.8130   153.5950 c3         1 VZF       0.259100
     12 N1         -30.1690    17.1200   150.0730 nb         1 VZF      -0.282000
     13 N2         -28.7590    18.4540   148.6850 nb         1 VZF      -0.279000
     14 C3         -28.0580    18.6970   149.7740 ca         1 VZF       0.243900
     15 N3         -26.9490    19.5100   149.8520 n          1 VZF      -0.385300
     16 C1         -29.4740    17.4190   151.1840 ca         1 VZF       0.400900
     17 C15        -28.1610    14.6540   152.7820 ca         1 VZF      -0.068500
     18 C16        -27.2410    13.6240   152.9370 ca         1 VZF      -0.157000
     19 C17        -26.4220    13.5750   154.0630 ca         1 VZF       0.130100
     20 C18        -26.5270    14.5730   155.0320 ca         1 VZF      -0.157000
     21 C19        -27.4440    15.6020   154.8590 ca         1 VZF      -0.068500
     22 C2         -29.8220    17.6450   148.8930 ca         1 VZF       0.426900
     23 C20        -24.3680    12.6760   154.9020 c3         1 VZF       0.150900
     24 N4         -27.4010    18.8300   151.9090 ns         1 VZF      -0.487600
     25 N5         -30.5820    17.3410   147.8010 nh         1 VZF      -0.775300
     26 N6         -29.9580    16.7930   152.3260 nu         1 VZF      -0.896100
     27 O1         -25.5610    20.2210   151.6000 o          1 VZF      -0.570000
     28 O2         -31.8540    19.2040   145.9690 oh         1 VZF      -0.661500
     29 O3         -31.5410    14.3620   148.6800 oh         1 VZF      -0.661500
     30 O4         -25.5770    12.5010   154.1630 os         1 VZF      -0.356100
     31 H1         -25.5140    20.8110   149.2620 h1         1 VZF       0.078700
     32 H2         -30.0650    19.0900   144.9070 h1         1 VZF       0.028950
     33 H3         -29.9390    19.7750   146.5370 h1         1 VZF       0.028950
     34 H4         -27.7030    21.9350   148.9530 hc         1 VZF       0.046867
     35 H5         -26.7730    21.9130   147.4480 hc         1 VZF       0.046867
     36 H6         -28.1230    20.7860   147.6680 hc         1 VZF       0.046867
     37 H7         -25.0510    18.6210   148.1820 hc         1 VZF       0.046867
     38 H8         -26.5110    18.8020   147.1850 hc         1 VZF       0.046867
     39 H9         -25.1570    19.9240   146.9900 hc         1 VZF       0.046867
     40 H10        -30.4590    16.8630   145.7830 h1         1 VZF       0.069200
     41 H11        -28.9970    17.5600   146.4710 h1         1 VZF       0.069200
     42 H12        -32.5900    17.1720   147.3150 h1         1 VZF       0.069200
     43 H13        -32.1720    16.7110   148.9610 h1         1 VZF       0.069200
     44 H14        -32.7940    14.8960   147.1030 h1         1 VZF       0.028950
     45 H15        -31.0590    15.0020   146.7620 h1         1 VZF       0.028950
     46 H16        -28.7070    17.7440   153.7630 h1         1 VZF       0.041700
     47 H17        -29.9980    16.7720   154.3860 h1         1 VZF       0.041700
     48 H18        -28.7840    14.6840   151.8960 ha         1 VZF       0.124500
     49 H19        -27.1500    12.8500   152.1860 ha         1 VZF       0.123000
     50 H20        -25.9110    14.5650   155.9200 ha         1 VZF       0.123000
     51 H21        -27.5160    16.3780   155.6130 ha         1 VZF       0.124500
     52 H22        -23.8270    11.7360   154.8240 h1         1 VZF       0.039367
     53 H23        -23.7710    13.4880   154.4800 h1         1 VZF       0.039367
     54 H24        -24.5600    12.8820   155.9570 h1         1 VZF       0.039367
     55 H25        -27.2270    18.6380   152.8800 hn         1 VZF       0.466000
     56 H26        -30.9480    16.9570   152.4440 hn         1 VZF       0.480000
     57 H27        -32.0220    20.1430   145.8350 ho         1 VZF       0.437500
     58 H28        -31.7320    13.4450   148.4500 ho         1 VZF       0.437500
@<TRIPOS>BOND
     1     1    14 ar  
     2     1    16 ar  
     3     1    24 1   
     4     2    11 1   
     5     2    17 ar  
     6     2    21 ar  
     7     3    15 1   
     8     3    24 1   
     9     3    27 2   
    10     4     6 1   
    11     4     7 1   
    12     4    15 1   
    13     4    31 1   
    14     5     8 1   
    15     5    28 1   
    16     5    32 1   
    17     5    33 1   
    18     6    34 1   
    19     6    35 1   
    20     6    36 1   
    21     7    37 1   
    22     7    38 1   
    23     7    39 1   
    24     8    25 1   
    25     8    40 1   
    26     8    41 1   
    27     9    10 1   
    28     9    25 1   
    29     9    42 1   
    30     9    43 1   
    31    10    29 1   
    32    10    44 1   
    33    10    45 1   
    34    11    26 1   
    35    11    46 1   
    36    11    47 1   
    37    12    16 ar  
    38    12    22 ar  
    39    13    14 ar  
    40    13    22 ar  
    41    14    15 1   
    42    16    26 1   
    43    17    18 ar  
    44    17    48 1   
    45    18    19 ar  
    46    18    49 1   
    47    19    20 ar  
    48    19    30 1   
    49    20    21 ar  
    50    20    50 1   
    51    21    51 1   
    52    22    25 1   
    53    23    30 1   
    54    23    52 1   
    55    23    53 1   
    56    23    54 1   
    57    24    55 1   
    58    26    56 1   
    59    28    57 1   
    60    29    58 1   
@<TRIPOS>SUBSTRUCTURE
     1 VZF         1 TEMP              0 ****  ****    0 ROOT
