@<TRIPOS>MOLECULE
VZF
   58    60     1     0     0
SMALL
No Charge or Current Charge


@<TRIPOS>ATOM
      1 C4         -28.3990    17.2750   150.8000 ca         1 VZF      -0.205400
      2 C14        -28.4520    15.6060   153.7510 ca         1 VZF      -0.134300
      3 C5         -26.2040    17.9730   151.0660 c          1 VZF       0.590000
      4 C6         -25.8910    19.1130   148.8110 c3         1 VZF       0.137700
      5 C11        -30.7160    19.9270   146.5290 c3         1 VZF       0.138600
      6 C7         -26.5060    20.4880   148.4720 c3         1 VZF      -0.104600
      7 C8         -25.6090    18.2710   147.5490 c3         1 VZF      -0.104600
      8 C9         -30.5900    18.3790   146.4030 c3         1 VZF       0.235800
      9 C10        -32.3280    17.0010   147.6380 c3         1 VZF       0.235800
     10 C12        -32.4650    15.6290   146.9100 c3         1 VZF       0.138600
     11 C13        -29.8180    16.1950   153.4030 c3         1 VZF       0.259100
     12 N1         -30.5130    16.8220   149.8360 nb         1 VZF      -0.282000
     13 N2         -28.8400    18.0540   148.5850 nb         1 VZF      -0.279000
     14 C3         -28.0370    17.9270   149.6470 ca         1 VZF       0.243900
     15 N3         -26.6900    18.3710   149.8080 n          1 VZF      -0.385300
     16 C1         -29.6810    16.7170   150.8890 ca         1 VZF       0.400900
     17 C15        -28.0150    14.3880   153.1890 ca         1 VZF      -0.068500
     18 C16        -26.7460    13.8760   153.5090 ca         1 VZF      -0.157000
     19 C17        -25.9010    14.5630   154.3940 ca         1 VZF       0.130100
     20 C18        -26.3390    15.7750   154.9690 ca         1 VZF      -0.157000
     21 C19        -27.6090    16.2880   154.6520 ca         1 VZF      -0.068500
     22 C2         -30.0640    17.4850   148.7320 ca         1 VZF       0.426900
     23 C20        -23.7240    14.6410   155.5540 c3         1 VZF       0.150900
     24 N4         -27.2650    17.3260   151.6350 ns         1 VZF      -0.487600
     25 N5         -30.9560    17.6020   147.6280 nh         1 VZF      -0.775300
     26 N6         -30.1810    16.0240   151.9870 nu         1 VZF      -0.896100
     27 O1         -25.0980    18.1440   151.5460 o          1 VZF      -0.570000
     28 O2         -32.0890    20.3440   146.6770 oh         1 VZF      -0.661500
     29 O3         -31.7350    14.5790   147.5750 oh         1 VZF      -0.661500
     30 O4         -24.6660    14.0120   154.6670 os         1 VZF      -0.356100
     31 H1         -24.9140    19.3180   149.2680 h1         1 VZF       0.078700
     32 H2         -30.2850    20.3830   145.6280 h1         1 VZF       0.028950
     33 H3         -30.1190    20.2680   147.3850 h1         1 VZF       0.028950
     34 H4         -26.6720    21.0680   149.3870 hc         1 VZF       0.046867
     35 H5         -25.8310    21.0600   147.8240 hc         1 VZF       0.046867
     36 H6         -27.4650    20.3790   147.9540 hc         1 VZF       0.046867
     37 H7         -25.1430    17.3160   147.8210 hc         1 VZF       0.046867
     38 H8         -26.5330    18.0580   146.9980 hc         1 VZF       0.046867
     39 H9         -24.9260    18.8030   146.8760 hc         1 VZF       0.046867
     40 H10        -31.2130    18.0590   145.5560 h1         1 VZF       0.069200
     41 H11        -29.5590    18.1420   146.1060 h1         1 VZF       0.069200
     42 H12        -33.0220    17.6990   147.1500 h1         1 VZF       0.069200
     43 H13        -32.7120    16.8930   148.6600 h1         1 VZF       0.069200
     44 H14        -33.5300    15.3690   146.8640 h1         1 VZF       0.028950
     45 H15        -32.1120    15.7400   145.8760 h1         1 VZF       0.028950
     46 H16        -29.8410    17.2630   153.6610 h1         1 VZF       0.041700
     47 H17        -30.5690    15.6940   154.0300 h1         1 VZF       0.041700
     48 H18        -28.6540    13.8420   152.4990 ha         1 VZF       0.124500
     49 H19        -26.4140    12.9400   153.0660 ha         1 VZF       0.123000
     50 H20        -25.7130    16.3300   155.6630 ha         1 VZF       0.123000
     51 H21        -27.9360    17.2230   155.1050 ha         1 VZF       0.124500
     52 H22        -22.8090    14.0400   155.6270 h1         1 VZF       0.039367
     53 H23        -23.4470    15.6380   155.1860 h1         1 VZF       0.039367
     54 H24        -24.1450    14.7420   156.5630 h1         1 VZF       0.039367
     55 H25        -27.1880    16.8330   152.5190 hn         1 VZF       0.466000
     56 H26        -31.0980    15.6130   151.8160 hn         1 VZF       0.480000
     57 H27        -32.0800    21.3170   146.8170 ho         1 VZF       0.437500
     58 H28        -31.8180    13.7740   147.0190 ho         1 VZF       0.437500
@<TRIPOS>BOND
     1     1    14 ar  
     2     1    16 ar  
     3     1    24 1   
     4     2    11 1   
     5     2    17 ar  
     6     2    21 ar  
     7     3    15 1   
     8     3    24 1   
     9     3    27 2   
    10     4     6 1   
    11     4     7 1   
    12     4    15 1   
    13     4    31 1   
    14     5     8 1   
    15     5    28 1   
    16     5    32 1   
    17     5    33 1   
    18     6    34 1   
    19     6    35 1   
    20     6    36 1   
    21     7    37 1   
    22     7    38 1   
    23     7    39 1   
    24     8    25 1   
    25     8    40 1   
    26     8    41 1   
    27     9    10 1   
    28     9    25 1   
    29     9    42 1   
    30     9    43 1   
    31    10    29 1   
    32    10    44 1   
    33    10    45 1   
    34    11    26 1   
    35    11    46 1   
    36    11    47 1   
    37    12    16 ar  
    38    12    22 ar  
    39    13    14 ar  
    40    13    22 ar  
    41    14    15 1   
    42    16    26 1   
    43    17    18 ar  
    44    17    48 1   
    45    18    19 ar  
    46    18    49 1   
    47    19    20 ar  
    48    19    30 1   
    49    20    21 ar  
    50    20    50 1   
    51    21    51 1   
    52    22    25 1   
    53    23    30 1   
    54    23    52 1   
    55    23    53 1   
    56    23    54 1   
    57    24    55 1   
    58    26    56 1   
    59    28    57 1   
    60    29    58 1   
@<TRIPOS>SUBSTRUCTURE
     1 VZF         1 TEMP              0 ****  ****    0 ROOT
