@<TRIPOS>MOLECULE
VZG
   62    65     1     0     0
SMALL
No Charge or Current Charge


@<TRIPOS>ATOM
      1 C13         15.3410    -0.2790    31.6480 c          1 VZG       0.519600
      2 C18         18.3660    -4.9190    23.7060 ca         1 VZG       0.232500
      3 C17          7.2190    -2.9610    31.3240 cx         1 VZG      -0.092900
      4 C16          7.1970    -4.3910    30.8390 cx         1 VZG      -0.092900
      5 C15          8.2020    -3.9670    31.8930 cx         1 VZG      -0.251700
      6 C19         17.1590    -5.6560    23.6600 ca         1 VZG      -0.101000
      7 C20         16.3350    -5.6690    24.8020 ca         1 VZG      -0.117000
      8 C21         19.3250    -4.8560    22.5170 c          1 VZG       0.517600
      9 C22         17.4590    -4.2960    20.9020 c3         1 VZG       0.087800
     10 C23         19.7050    -5.0170    20.0420 c3         1 VZG       0.087800
     11 C24         16.6960     1.5380    32.7520 c3         1 VZG       0.096300
     12 C11         11.5600    -2.2250    31.7620 ca         1 VZG       0.474900
     13 C12         12.4920    -2.7170    30.8400 ca         1 VZG      -0.269000
     14 C1          15.6940    -3.7630    27.9770 ca         1 VZG       0.121100
     15 C2          14.9120    -3.7860    29.1620 ca         1 VZG       0.257000
     16 C3          14.3800    -5.0120    29.6000 ca         1 VZG      -0.101000
     17 C4          14.5820    -6.1830    28.8520 ca         1 VZG      -0.099000
     18 C5          15.3350    -6.1450    27.6680 ca         1 VZG      -0.091000
     19 C6          15.9240    -4.9400    27.2080 cp         1 VZG      -0.153500
     20 C7          16.7420    -4.9490    25.9510 cp         1 VZG       0.348500
     21 N1          14.7260    -2.6030    29.8990 nu         1 VZG      -0.963000
     22 C8          15.4560    -1.7780    26.6050 c3         1 VZG       0.148900
     23 C9          13.7640    -2.1290    30.8060 ca         1 VZG       0.399000
     24 C10         14.0150    -1.0280    31.6760 ca         1 VZG       0.126500
     25 N2          13.0550    -0.6010    32.5470 nb         1 VZG      -0.270000
     26 N3          11.8500    -1.1950    32.5870 nb         1 VZG      -0.427000
     27 N4          15.5040     0.6980    32.6110 ns         1 VZG      -0.476900
     28 O2          16.2250    -0.4930    30.8230 o          1 VZG      -0.637100
     29 O3          10.2390    -4.7460    30.9040 o          1 VZG      -0.580100
     30 N6          17.9220    -4.2830    25.9380 nb         1 VZG      -0.278000
     31 N7          18.7190    -4.2660    24.8480 nb         1 VZG      -0.271000
     32 O4          20.5420    -4.8490    22.6830 o          1 VZG      -0.561100
     33 N8          18.7930    -4.8720    21.1990 n          1 VZG      -0.407800
     34 H18          7.5910    -2.2030    30.6380 hc         1 VZG       0.084200
     35 H15          6.3660    -5.0200    31.1520 hc         1 VZG       0.084200
     36 H16          7.5570    -4.5890    29.8320 hc         1 VZG       0.084200
     37 H14          8.0220    -4.3130    32.9080 hc         1 VZG       0.092700
     38 H19         16.8790    -6.2230    22.7770 ha         1 VZG       0.137000
     39 H20         15.3990    -6.2210    24.8020 ha         1 VZG       0.136000
     40 H23         17.1250    -3.6450    21.7200 h1         1 VZG       0.043533
     41 H21         17.5060    -3.6930    19.9860 h1         1 VZG       0.043533
     42 H22         16.7300    -5.1020    20.7540 h1         1 VZG       0.043533
     43 H26         20.3940    -5.8550    20.2110 h1         1 VZG       0.043533
     44 H24         19.1300    -5.2170    19.1290 h1         1 VZG       0.043533
     45 H25         20.2840    -4.0950    19.9080 h1         1 VZG       0.043533
     46 H1          16.5640     2.2250    33.5970 h1         1 VZG       0.042700
     47 H3          17.5740     0.9040    32.9350 h1         1 VZG       0.042700
     48 H2          16.8500     2.1180    31.8330 h1         1 VZG       0.042700
     49 H11         12.2280    -3.5050    30.1490 ha         1 VZG       0.169000
     50 H4          13.8250    -5.0700    30.5310 ha         1 VZG       0.130000
     51 H5          14.1620    -7.1250    29.1970 ha         1 VZG       0.124000
     52 H6          15.4870    -7.0700    27.1150 ha         1 VZG       0.121000
     53 H7          15.5020    -1.9320    29.7860 hn         1 VZG       0.562000
     54 H8          15.9990    -0.8600    26.3480 h1         1 VZG       0.037700
     55 H10         15.2700    -2.3390    25.6800 h1         1 VZG       0.037700
     56 H9          14.4880    -1.4960    27.0400 h1         1 VZG       0.037700
     57 H12         14.7300     0.8320    33.2550 hn         1 VZG       0.345500
     58 N5          10.2520    -2.6960    31.9330 ns         1 VZG      -0.314900
     59 O1          16.2180    -2.5660    27.5320 os         1 VZG      -0.340100
     60 C14          9.6590    -3.8590    31.5130 c          1 VZG       0.649100
     61 H17          6.4020    -2.6310    31.9620 hc         1 VZG       0.084200
     62 H13          9.6560    -2.0760    32.4630 hn         1 VZG       0.174000
@<TRIPOS>BOND
     1     1    24 1   
     2     1    27 1   
     3     1    28 2   
     4     2     6 ar  
     5     2     8 1   
     6     2    31 ar  
     7     3     4 1   
     8     3     5 1   
     9     3    34 1   
    10     3    61 1   
    11     4     5 1   
    12     4    35 1   
    13     4    36 1   
    14     5    37 1   
    15     5    60 1   
    16     6     7 ar  
    17     6    38 1   
    18     7    20 ar  
    19     7    39 1   
    20     8    32 2   
    21     8    33 1   
    22     9    33 1   
    23     9    40 1   
    24     9    41 1   
    25     9    42 1   
    26    10    33 1   
    27    10    43 1   
    28    10    44 1   
    29    10    45 1   
    30    11    27 1   
    31    11    46 1   
    32    11    47 1   
    33    11    48 1   
    34    12    13 ar  
    35    12    26 ar  
    36    12    58 1   
    37    13    23 ar  
    38    13    49 1   
    39    14    15 ar  
    40    14    19 ar  
    41    14    59 1   
    42    15    16 ar  
    43    15    21 1   
    44    16    17 ar  
    45    16    50 1   
    46    17    18 ar  
    47    17    51 1   
    48    18    19 ar  
    49    18    52 1   
    50    19    20 1   
    51    20    30 ar  
    52    21    23 1   
    53    21    53 1   
    54    22    54 1   
    55    22    55 1   
    56    22    56 1   
    57    22    59 1   
    58    23    24 ar  
    59    24    25 ar  
    60    25    26 ar  
    61    27    57 1   
    62    29    60 2   
    63    30    31 ar  
    64    58    60 1   
    65    58    62 1   
@<TRIPOS>SUBSTRUCTURE
     1 VZG         1 TEMP              0 ****  ****    0 ROOT
