@<TRIPOS>MOLECULE
VZG
   62    65     1     0     0
SMALL
abcg2


@<TRIPOS>ATOM
      1 C13         15.5570    -0.2090    31.8180 c          1 VZG       0.519600
      2 C18         17.7910    -5.1340    23.8130 ca         1 VZG       0.232500
      3 C17          7.6520    -4.0190    29.6260 cx         1 VZG      -0.092900
      4 C16          7.8800    -4.9110    30.7880 cx         1 VZG      -0.092900
      5 C15          8.4840    -3.5280    30.7840 cx         1 VZG      -0.251700
      6 C19         16.4910    -5.6300    23.8560 ca         1 VZG      -0.101000
      7 C20         15.8580    -5.6130    25.0740 ca         1 VZG      -0.117000
      8 C21         18.6340    -5.2220    22.5700 c          1 VZG       0.517600
      9 C22         17.1080    -3.6360    21.4420 c3         1 VZG       0.087800
     10 C23         18.8500    -4.8240    20.2030 c3         1 VZG       0.087800
     11 C24         16.6780     1.5860    33.0190 c3         1 VZG       0.096300
     12 C11         11.8430    -1.9830    31.3070 ca         1 VZG       0.474900
     13 C12         12.8780    -2.6120    30.6390 ca         1 VZG      -0.269000
     14 C1          15.8710    -3.8590    28.2240 ca         1 VZG       0.121100
     15 C2          15.2830    -3.8410    29.4920 ca         1 VZG       0.257000
     16 C3          14.7960    -5.0230    30.0410 ca         1 VZG      -0.101000
     17 C4          14.8510    -6.2030    29.3180 ca         1 VZG      -0.099000
     18 C5          15.4240    -6.2180    28.0560 ca         1 VZG      -0.091000
     19 C6          15.9500    -5.0520    27.5050 cp         1 VZG      -0.153500
     20 C7          16.5610    -5.0910    26.1610 cp         1 VZG       0.348500
     21 N1          15.2480    -2.6310    30.1970 nu         1 VZG      -0.963000
     22 C8          15.3970    -1.9500    26.9690 c3         1 VZG       0.148900
     23 C9          14.1630    -2.0900    30.7870 ca         1 VZG       0.399000
     24 C10         14.2660    -0.9260    31.5970 ca         1 VZG       0.126500
     25 N2          13.2120    -0.4100    32.1950 nb         1 VZG      -0.270000
     26 N3          12.0200    -0.9040    32.0830 nb         1 VZG      -0.427000
     27 N4          15.5220     0.7820    32.7070 ns         1 VZG      -0.476900
     28 O2          16.5810    -0.5250    31.2090 o          1 VZG      -0.637100
     29 O3          10.5820    -4.1740    29.8750 o          1 VZG      -0.580100
     30 N6          17.8010    -4.6300    26.0410 nb         1 VZG      -0.278000
     31 N7          18.4100    -4.6640    24.8840 nb         1 VZG      -0.271000
     32 O4          19.6760    -5.8590    22.6150 o          1 VZG      -0.561100
     33 N8          18.1560    -4.6380    21.4610 n          1 VZG      -0.407800
     34 H18          8.1710    -4.2400    28.7030 hc         1 VZG       0.084200
     35 H15          7.0690    -5.0800    31.4830 hc         1 VZG       0.084200
     36 H16          8.5560    -5.7460    30.6660 hc         1 VZG       0.084200
     37 H14          8.0240    -2.7960    31.4370 hc         1 VZG       0.092700
     38 H19         16.0040    -6.0110    22.9680 ha         1 VZG       0.137000
     39 H20         14.8470    -5.9780    25.1920 ha         1 VZG       0.136000
     40 H23         16.7830    -3.3730    22.4440 h1         1 VZG       0.043533
     41 H21         17.4840    -2.7260    20.9710 h1         1 VZG       0.043533
     42 H22         16.2440    -3.9830    20.8740 h1         1 VZG       0.043533
     43 H26         19.3500    -5.7880    20.1760 h1         1 VZG       0.043533
     44 H24         18.1240    -4.7890    19.3920 h1         1 VZG       0.043533
     45 H25         19.5910    -4.0390    20.0340 h1         1 VZG       0.043533
     46 H1          16.3930     2.3180    33.7700 h1         1 VZG       0.042700
     47 H3          17.4910     0.9820    33.4210 h1         1 VZG       0.042700
     48 H2          17.0490     2.1190    32.1430 h1         1 VZG       0.042700
     49 H11         12.6930    -3.4720    30.0180 ha         1 VZG       0.169000
     50 H4          14.3740    -5.0160    31.0380 ha         1 VZG       0.130000
     51 H5          14.4660    -7.1170    29.7500 ha         1 VZG       0.124000
     52 H6          15.4830    -7.1450    27.5000 ha         1 VZG       0.121000
     53 H7          16.0900    -2.0660    30.2460 hn         1 VZG       0.562000
     54 H8          15.8970    -1.0460    26.6290 h1         1 VZG       0.037700
     55 H10         15.0380    -2.5060    26.0990 h1         1 VZG       0.037700
     56 H9          14.5400    -1.6700    27.5860 h1         1 VZG       0.037700
     57 H12         14.6370     0.9900    33.1430 hn         1 VZG       0.345500
     58 N5          10.5190    -2.3730    31.2640 ns         1 VZG      -0.314900
     59 O1          16.3550    -2.7040    27.7050 os         1 VZG      -0.340100
     60 C14          9.9480    -3.4130    30.5830 c          1 VZG       0.649100
     61 H17          6.6790    -3.5620    29.5030 hc         1 VZG       0.084200
     62 H13          9.9120    -1.7910    31.8250 hn         1 VZG       0.174000
@<TRIPOS>BOND
     1     1    24 1   
     2     1    27 1   
     3     1    28 2   
     4     2     6 ar  
     5     2     8 1   
     6     2    31 ar  
     7     3     4 1   
     8     3     5 1   
     9     3    34 1   
    10     3    61 1   
    11     4     5 1   
    12     4    35 1   
    13     4    36 1   
    14     5    37 1   
    15     5    60 1   
    16     6     7 ar  
    17     6    38 1   
    18     7    20 ar  
    19     7    39 1   
    20     8    32 2   
    21     8    33 1   
    22     9    33 1   
    23     9    40 1   
    24     9    41 1   
    25     9    42 1   
    26    10    33 1   
    27    10    43 1   
    28    10    44 1   
    29    10    45 1   
    30    11    27 1   
    31    11    46 1   
    32    11    47 1   
    33    11    48 1   
    34    12    13 ar  
    35    12    26 ar  
    36    12    58 1   
    37    13    23 ar  
    38    13    49 1   
    39    14    15 ar  
    40    14    19 ar  
    41    14    59 1   
    42    15    16 ar  
    43    15    21 1   
    44    16    17 ar  
    45    16    50 1   
    46    17    18 ar  
    47    17    51 1   
    48    18    19 ar  
    49    18    52 1   
    50    19    20 1   
    51    20    30 ar  
    52    21    23 1   
    53    21    53 1   
    54    22    54 1   
    55    22    55 1   
    56    22    56 1   
    57    22    59 1   
    58    23    24 ar  
    59    24    25 ar  
    60    25    26 ar  
    61    27    57 1   
    62    29    60 2   
    63    30    31 ar  
    64    58    60 1   
    65    58    62 1   
@<TRIPOS>SUBSTRUCTURE
     1 VZG         1 TEMP              0 ****  ****    0 ROOT
