@<TRIPOS>MOLECULE
VZI
   55    59     1     0     0
SMALL
No Charge or Current Charge


@<TRIPOS>ATOM
      1 C2          21.9860     5.6070    31.2100 ca         1 VZI      -0.089300
      2 C5          24.0090     7.9380    34.2470 cc         1 VZI       0.168300
      3 C10         24.5830    14.6580    32.6430 ca         1 VZI      -0.171800
      4 C12         24.3490    16.8820    31.6800 ca         1 VZI      -0.140000
      5 C15         24.3340    15.1870    33.9140 ca         1 VZI       0.177100
      6 C17         22.9300     4.5990    31.5000 ca         1 VZI      -0.111000
      7 C20         24.9890     2.9370    28.0700 ca         1 VZI       0.110100
      8 C23         27.6670     2.0850    27.9640 ca         1 VZI      -0.135000
      9 C24         27.3560     3.3590    28.4710 ca         1 VZI      -0.079500
     10 C7          25.0740    10.9590    33.4490 c          1 VZI       0.619300
     11 O3          25.2930    10.4680    32.3510 o          1 VZI      -0.634100
     12 C8          24.8170    12.4080    33.6390 cc         1 VZI      -0.300400
     13 C16         24.5480    13.0100    34.9760 c          1 VZI       0.687300
     14 O2          24.5160    12.3720    36.0190 o          1 VZI      -0.502000
     15 O1          24.3260    14.3640    35.0100 os         1 VZI      -0.329200
     16 C14         24.0920    16.5600    34.0780 ca         1 VZI      -0.133000
     17 C13         24.0990    17.4110    32.9590 ca         1 VZI      -0.051000
     18 C11         24.5910    15.5060    31.5190 ca         1 VZI      -0.038000
     19 C9          24.8290    13.2260    32.5220 cd         1 VZI       0.000800
     20 N1          25.0570    10.1690    34.5720 ns         1 VZI      -0.492900
     21 C6          25.2590     8.7140    34.5810 c3         1 VZI       0.100700
     22 C4          23.4650     7.7210    33.0200 cd         1 VZI      -0.162000
     23 N2          23.2510     7.3460    35.2180 nc         1 VZI      -0.351000
     24 N3          22.2340     6.7520    34.6450 nd         1 VZI      -0.212800
     25 N           22.3450     6.9690    33.2940 na         1 VZI       0.109800
     26 C3          21.3640     6.4370    32.3330 c3         1 VZI       0.131900
     27 C1          21.6080     5.8330    29.8710 ca         1 VZI      -0.127000
     28 C18         23.5000     3.8380    30.4640 ca         1 VZI      -0.076000
     29 C19         23.1330     4.0820    29.1260 ca         1 VZI       0.011100
     30 C           22.1760     5.0740    28.8350 ca         1 VZI       0.136100
     31 O           21.8010     5.3030    27.5420 oh         1 VZI      -0.529100
     32 O4          23.6720     3.3380    28.0950 os         1 VZI      -0.266200
     33 C25         26.0180     3.7870    28.5210 ca         1 VZI      -0.151000
     34 C22         26.6420     1.2410    27.5010 ca         1 VZI      -0.079500
     35 C21         25.3040     1.6700    27.5510 ca         1 VZI      -0.151000
     36 H2          23.2220     4.4000    32.5290 ha         1 VZI       0.138000
     37 H3          28.7020     1.7540    27.9240 ha         1 VZI       0.118000
     38 H4          28.1510     4.0140    28.8230 ha         1 VZI       0.116500
     39 H5          23.8990    16.9620    35.0690 ha         1 VZI       0.143000
     40 H6          23.9110    18.4760    33.0820 ha         1 VZI       0.125000
     41 H7          24.7840    15.1040    30.5260 ha         1 VZI       0.125000
     42 H8          25.0240    12.8070    31.5360 ha         1 VZI       0.219000
     43 H9          24.8620    10.6390    35.4510 hn         1 VZI       0.355500
     44 H10         25.6130     8.4170    35.5770 h1         1 VZI       0.066700
     45 H11         26.0470     8.4520    33.8630 h1         1 VZI       0.066700
     46 H12         23.7710     8.0280    32.0280 h4         1 VZI       0.179000
     47 H13         20.8160     7.2870    31.9090 h1         1 VZI       0.080200
     48 H14         20.6410     5.8170    32.8750 h1         1 VZI       0.080200
     49 H15         20.8750     6.5990    29.6290 ha         1 VZI       0.132000
     50 H16         24.2190     3.0590    30.7040 ha         1 VZI       0.135000
     51 H17         22.3040     4.6720    26.9820 ho         1 VZI       0.482000
     52 H18         25.7840     4.7770    28.9040 ha         1 VZI       0.128500
     53 H19         26.8840     0.2570    27.1030 ha         1 VZI       0.116500
     54 H20         24.5100     1.0200    27.1920 ha         1 VZI       0.128500
     55 H1          24.3550    17.5390    30.8120 ha         1 VZI       0.126000
@<TRIPOS>BOND
     1     1     6 ar  
     2     1    26 1   
     3     1    27 ar  
     4     2    21 1   
     5     2    22 2   
     6     2    23 1   
     7     3     5 ar  
     8     3    18 ar  
     9     3    19 1   
    10     4    17 ar  
    11     4    18 ar  
    12     4    55 1   
    13     5    15 1   
    14     5    16 ar  
    15     6    28 ar  
    16     6    36 1   
    17     7    32 1   
    18     7    33 ar  
    19     7    35 ar  
    20     8     9 ar  
    21     8    34 ar  
    22     8    37 1   
    23     9    33 ar  
    24     9    38 1   
    25    10    11 2   
    26    10    12 1   
    27    10    20 1   
    28    12    13 1   
    29    12    19 2   
    30    13    14 2   
    31    13    15 1   
    32    16    17 ar  
    33    16    39 1   
    34    17    40 1   
    35    18    41 1   
    36    19    42 1   
    37    20    21 1   
    38    20    43 1   
    39    21    44 1   
    40    21    45 1   
    41    22    25 1   
    42    22    46 1   
    43    23    24 2   
    44    24    25 1   
    45    25    26 1   
    46    26    47 1   
    47    26    48 1   
    48    27    30 ar  
    49    27    49 1   
    50    28    29 ar  
    51    28    50 1   
    52    29    30 ar  
    53    29    32 1   
    54    30    31 1   
    55    31    51 1   
    56    33    52 1   
    57    34    35 ar  
    58    34    53 1   
    59    35    54 1   
@<TRIPOS>SUBSTRUCTURE
     1 VZI         1 TEMP              0 ****  ****    0 ROOT
