@<TRIPOS>MOLECULE
VZI
   55    59     1     0     0
SMALL
abcg2


@<TRIPOS>ATOM
      1 C2          22.1150     5.6650    30.7300 ca         1 VZI      -0.089300
      2 C5          24.4070     8.3590    33.2170 cc         1 VZI       0.168300
      3 C10         24.1630    15.1390    33.1860 ca         1 VZI      -0.171800
      4 C12         23.4520    17.4220    32.8520 ca         1 VZI      -0.140000
      5 C15         24.4700    15.4560    34.5150 ca         1 VZI       0.177100
      6 C17         22.3670     4.4810    31.4260 ca         1 VZI      -0.111000
      7 C20         24.7830     2.0310    28.5810 ca         1 VZI       0.110100
      8 C23         27.4660     1.3630    28.2930 ca         1 VZI      -0.135000
      9 C24         27.1000     2.5450    28.9250 ca         1 VZI      -0.079500
     10 C7          25.1140    11.4740    33.0440 c          1 VZI       0.619300
     11 O3          25.0230    11.2650    31.8320 o          1 VZI      -0.634100
     12 C8          24.8910    12.8550    33.5930 cc         1 VZI      -0.300400
     13 C16         25.1770    13.2010    34.9790 c          1 VZI       0.687300
     14 O2          25.6000    12.4570    35.8430 o          1 VZI      -0.502000
     15 O1          24.9660    14.5030    35.3540 os         1 VZI      -0.329200
     16 C14         24.2870    16.7340    35.0220 ca         1 VZI      -0.133000
     17 C13         23.7760    17.7120    34.1830 ca         1 VZI      -0.051000
     18 C11         23.6440    16.1480    32.3570 ca         1 VZI      -0.038000
     19 C9          24.4000    13.8030    32.7550 cd         1 VZI       0.000800
     20 N1          25.3860    10.5050    33.9330 ns         1 VZI      -0.492900
     21 C6          25.6490     9.1330    33.5200 c3         1 VZI       0.100700
     22 C4          23.6920     8.2420    32.0470 cd         1 VZI      -0.162000
     23 N2          23.7680     7.6210    34.1670 nc         1 VZI      -0.351000
     24 N3          22.7110     7.0620    33.6420 nd         1 VZI      -0.212800
     25 N           22.6530     7.4400    32.3570 na         1 VZI       0.109800
     26 C3          21.6350     6.8970    31.4610 c3         1 VZI       0.131900
     27 C1          22.3060     5.7130    29.3550 ca         1 VZI      -0.127000
     28 C18         22.8180     3.3610    30.7440 ca         1 VZI      -0.076000
     29 C19         23.0140     3.4160    29.3730 ca         1 VZI       0.011100
     30 C           22.7500     4.5880    28.6640 ca         1 VZI       0.136100
     31 O           22.9160     4.6650    27.3180 oh         1 VZI      -0.529100
     32 O4          23.4260     2.2960    28.6670 os         1 VZI      -0.266200
     33 C25         25.7590     2.8890    29.0750 ca         1 VZI      -0.151000
     34 C22         26.4740     0.5150    27.8050 ca         1 VZI      -0.079500
     35 C21         25.1330     0.8420    27.9450 ca         1 VZI      -0.151000
     36 H2          22.2190     4.4410    32.4970 ha         1 VZI       0.138000
     37 H3          28.5090     1.1020    28.1780 ha         1 VZI       0.118000
     38 H4          27.8640     3.2120    29.3070 ha         1 VZI       0.116500
     39 H5          24.5380    16.9420    36.0530 ha         1 VZI       0.143000
     40 H6          23.6340    18.7160    34.5620 ha         1 VZI       0.125000
     41 H7          23.4000    15.9080    31.3290 ha         1 VZI       0.125000
     42 H8          24.1840    13.5310    31.7290 ha         1 VZI       0.219000
     43 H9          25.5320    10.7850    34.8940 hn         1 VZI       0.355500
     44 H10         26.1730     8.6490    34.3410 h1         1 VZI       0.066700
     45 H11         26.3070     9.1390    32.6500 h1         1 VZI       0.066700
     46 H12         23.8290     8.6640    31.0690 h4         1 VZI       0.179000
     47 H13         21.3690     7.6780    30.7530 h1         1 VZI       0.080200
     48 H14         20.7660     6.6730    32.0780 h1         1 VZI       0.080200
     49 H15         22.1130     6.6200    28.7960 ha         1 VZI       0.132000
     50 H16         23.0250     2.4350    31.2650 ha         1 VZI       0.135000
     51 H17         23.2170     3.8080    26.9800 ho         1 VZI       0.482000
     52 H18         25.4880     3.8110    29.5680 ha         1 VZI       0.128500
     53 H19         26.7480    -0.4070    27.3080 ha         1 VZI       0.116500
     54 H20         24.3520     0.1930    27.5690 ha         1 VZI       0.128500
     55 H1          23.0350    18.1940    32.2210 ha         1 VZI       0.126000
@<TRIPOS>BOND
     1     1     6 ar  
     2     1    26 1   
     3     1    27 ar  
     4     2    21 1   
     5     2    22 2   
     6     2    23 1   
     7     3     5 ar  
     8     3    18 ar  
     9     3    19 1   
    10     4    17 ar  
    11     4    18 ar  
    12     4    55 1   
    13     5    15 1   
    14     5    16 ar  
    15     6    28 ar  
    16     6    36 1   
    17     7    32 1   
    18     7    33 ar  
    19     7    35 ar  
    20     8     9 ar  
    21     8    34 ar  
    22     8    37 1   
    23     9    33 ar  
    24     9    38 1   
    25    10    11 2   
    26    10    12 1   
    27    10    20 1   
    28    12    13 1   
    29    12    19 2   
    30    13    14 2   
    31    13    15 1   
    32    16    17 ar  
    33    16    39 1   
    34    17    40 1   
    35    18    41 1   
    36    19    42 1   
    37    20    21 1   
    38    20    43 1   
    39    21    44 1   
    40    21    45 1   
    41    22    25 1   
    42    22    46 1   
    43    23    24 2   
    44    24    25 1   
    45    25    26 1   
    46    26    47 1   
    47    26    48 1   
    48    27    30 ar  
    49    27    49 1   
    50    28    29 ar  
    51    28    50 1   
    52    29    30 ar  
    53    29    32 1   
    54    30    31 1   
    55    31    51 1   
    56    33    52 1   
    57    34    35 ar  
    58    34    53 1   
    59    35    54 1   
@<TRIPOS>SUBSTRUCTURE
     1 VZI         1 TEMP              0 ****  ****    0 ROOT
