@<TRIPOS>MOLECULE
VZJ
   52    55     1     0     0
SMALL
No Charge or Current Charge


@<TRIPOS>ATOM
      1 C13         15.9120    -2.0880    25.9540 c3         1 VZJ       0.149900
      2 C18          8.4140    -3.2410    31.2250 cx         1 VZJ      -0.251700
      3 C17          9.8690    -3.3370    30.8320 c          1 VZJ       0.648100
      4 C16         18.6780    -4.9200    24.0860 ca         1 VZJ       0.107400
      5 C15         18.2230    -5.7100    23.0180 ca         1 VZJ      -0.220000
      6 C19          8.0510    -3.2510    32.6980 cx         1 VZJ      -0.093400
      7 C20          7.7380    -4.4520    31.8380 cx         1 VZJ      -0.093400
      8 C21         17.6030     0.9980    32.1040 c3         1 VZJ       0.096300
      9 C11         15.8740    -4.0930    27.3140 ca         1 VZJ       0.120100
     10 C12         16.7590    -5.4210    25.2790 cp         1 VZJ       0.182500
     11 C1          14.5880    -1.1600    31.0170 ca         1 VZJ       0.124500
     12 N1          13.6970    -0.6030    31.8870 nb         1 VZJ      -0.272000
     13 N2          12.4200    -1.0210    31.9240 nb         1 VZJ      -0.428000
     14 C2          11.9880    -1.9960    31.0960 ca         1 VZJ       0.473900
     15 C3          12.8430    -2.6140    30.1730 ca         1 VZJ      -0.267000
     16 C4          14.1860    -2.2130    30.1430 ca         1 VZJ       0.400000
     17 C5          16.0070    -0.6060    30.9930 c          1 VZJ       0.519600
     18 N4          16.3050     0.3360    31.9590 ns         1 VZJ      -0.476900
     19 O1          16.8530    -0.9410    30.1680 o          1 VZJ      -0.638100
     20 C6          15.0920    -4.0110    28.4960 ca         1 VZJ       0.251000
     21 C7          14.3910    -5.1500    28.9300 ca         1 VZJ      -0.099000
     22 C8          14.4260    -6.3330    28.1780 ca         1 VZJ      -0.106000
     23 C9          15.1810    -6.4000    26.9960 ca         1 VZJ      -0.071000
     24 C10         15.9400    -5.2900    26.5360 cp         1 VZJ      -0.142500
     25 O2          16.5560    -2.9750    26.8810 os         1 VZJ      -0.344100
     26 N6          16.2540    -6.2020    24.2960 nb         1 VZJ      -0.158000
     27 C14         16.9810    -6.3460    23.1700 ca         1 VZJ       0.107400
     28 N7          17.9490    -4.7790    25.2100 nb         1 VZJ      -0.158000
     29 O3          10.3090    -4.2790    30.1890 o          1 VZJ      -0.577100
     30 H1          16.5740    -1.2490    25.7040 h1         1 VZJ       0.037367
     31 H2          15.6580    -2.6150    25.0250 h1         1 VZJ       0.037367
     32 H3          14.9880    -1.6810    26.3850 h1         1 VZJ       0.037367
     33 H4           7.8080    -2.6200    30.5720 hc         1 VZJ       0.091700
     34 H5          19.6310    -4.3970    24.0440 h4         1 VZJ       0.026600
     35 H6          18.8100    -5.8250    22.1110 ha         1 VZJ       0.135000
     36 H7           7.2190    -2.6290    33.0210 hc         1 VZJ       0.084200
     37 H8           8.8500    -3.3510    33.4300 hc         1 VZJ       0.084200
     38 H9           6.6960    -4.6360    31.5840 hc         1 VZJ       0.084200
     39 H10          8.3300    -5.3520    31.9920 hc         1 VZJ       0.084200
     40 H11         17.5670     1.6950    32.9510 h1         1 VZJ       0.042033
     41 H12         18.3830     0.2470    32.2870 h1         1 VZJ       0.042033
     42 H13         17.8390     1.5540    31.1880 h1         1 VZJ       0.042033
     43 H14         12.4720    -3.3560    29.4810 ha         1 VZJ       0.170000
     44 H15         10.1290    -1.5900    31.8140 hn         1 VZJ       0.173000
     45 H16         15.5560     0.5750    32.6020 hn         1 VZJ       0.345500
     46 H17         15.9350    -2.2600    29.1260 hn         1 VZJ       0.560000
     47 H18         13.8300    -5.1310    29.8590 ha         1 VZJ       0.131000
     48 H19         13.8760    -7.2080    28.5180 ha         1 VZJ       0.124000
     49 H20         15.1960    -7.3380    26.4440 ha         1 VZJ       0.130000
     50 H21         16.5620    -6.9760    22.3860 h4         1 VZJ       0.026600
     51 N5          15.0730    -2.8160    29.2380 nu         1 VZJ      -0.959000
     52 N3          10.6260    -2.2770    31.2660 ns         1 VZJ      -0.314900
@<TRIPOS>BOND
     1     1    25 1   
     2     1    30 1   
     3     1    31 1   
     4     1    32 1   
     5     2     3 1   
     6     2     6 1   
     7     2     7 1   
     8     2    33 1   
     9     3    29 2   
    10     3    52 1   
    11     4     5 ar  
    12     4    28 ar  
    13     4    34 1   
    14     5    27 ar  
    15     5    35 1   
    16     6     7 1   
    17     6    36 1   
    18     6    37 1   
    19     7    38 1   
    20     7    39 1   
    21     8    18 1   
    22     8    40 1   
    23     8    41 1   
    24     8    42 1   
    25     9    20 ar  
    26     9    24 ar  
    27     9    25 1   
    28    10    24 1   
    29    10    26 ar  
    30    10    28 ar  
    31    11    12 ar  
    32    11    16 ar  
    33    11    17 1   
    34    12    13 ar  
    35    13    14 ar  
    36    14    15 ar  
    37    14    52 1   
    38    15    16 ar  
    39    15    43 1   
    40    16    51 1   
    41    17    18 1   
    42    17    19 2   
    43    18    45 1   
    44    20    21 ar  
    45    20    51 1   
    46    21    22 ar  
    47    21    47 1   
    48    22    23 ar  
    49    22    48 1   
    50    23    24 ar  
    51    23    49 1   
    52    26    27 ar  
    53    27    50 1   
    54    44    52 1   
    55    46    51 1   
@<TRIPOS>SUBSTRUCTURE
     1 VZJ         1 TEMP              0 ****  ****    0 ROOT
