@<TRIPOS>MOLECULE
VZJ
   52    55     1     0     0
SMALL
abcg2


@<TRIPOS>ATOM
      1 C13         15.6580    -2.1790    26.3960 c3         1 VZJ       0.149900
      2 C18          8.8400    -3.2860    31.2420 cx         1 VZJ      -0.251700
      3 C17         10.2660    -3.2900    30.8350 c          1 VZJ       0.648100
      4 C16         18.0980    -5.1090    24.1010 ca         1 VZJ       0.107400
      5 C15         17.3900    -5.7130    23.0760 ca         1 VZJ      -0.220000
      6 C19          8.2680    -4.5780    31.7750 cx         1 VZJ      -0.093400
      7 C20          7.8700    -4.1030    30.4290 cx         1 VZJ      -0.093400
      8 C21         17.5240     1.4310    31.8690 c3         1 VZJ       0.096300
      9 C11         15.8970    -4.1440    27.6340 ca         1 VZJ       0.120100
     10 C12         16.3710    -5.4330    25.5260 cp         1 VZJ       0.182500
     11 C1          14.7970    -1.0050    30.9810 ca         1 VZJ       0.124500
     12 N1          13.8540    -0.3400    31.6160 nb         1 VZJ      -0.272000
     13 N2          12.6210    -0.7320    31.6690 nb         1 VZJ      -0.428000
     14 C2          12.2810    -1.8580    31.0270 ca         1 VZJ       0.473900
     15 C3          13.1820    -2.6240    30.3090 ca         1 VZJ      -0.267000
     16 C4          14.5150    -2.2130    30.2850 ca         1 VZJ       0.400000
     17 C5          16.1610    -0.3980    31.0230 c          1 VZJ       0.519600
     18 N4          16.2780     0.7150    31.7450 ns         1 VZJ      -0.476900
     19 O1          17.1100    -0.9040    30.4200 o          1 VZJ      -0.638100
     20 C6          15.3490    -4.0780    28.9200 ca         1 VZJ       0.251000
     21 C7          14.7350    -5.2000    29.4660 ca         1 VZJ      -0.099000
     22 C8          14.6090    -6.3570    28.7130 ca         1 VZJ      -0.106000
     23 C9          15.1280    -6.4130    27.4310 ca         1 VZJ      -0.071000
     24 C10         15.7950    -5.3180    26.8860 cp         1 VZJ      -0.142500
     25 O2          16.5120    -3.0410    27.1390 os         1 VZJ      -0.344100
     26 N6          15.6140    -6.0360    24.6140 nb         1 VZJ      -0.158000
     27 C14         16.1260    -6.1740    23.3990 ca         1 VZJ       0.107400
     28 N7          17.6000    -4.9700    25.3220 nb         1 VZJ      -0.158000
     29 O3          10.7920    -4.2310    30.2710 o          1 VZJ      -0.577100
     30 H1          16.2620    -1.3350    26.0700 h1         1 VZJ       0.037367
     31 H2          15.2500    -2.6820    25.5160 h1         1 VZJ       0.037367
     32 H3          14.8300    -1.8080    27.0060 h1         1 VZJ       0.037367
     33 H4           8.4610    -2.3710    31.6810 hc         1 VZJ       0.091700
     34 H5          19.1010    -4.7310    23.9380 h4         1 VZJ       0.026600
     35 H6          17.8030    -5.8230    22.0840 ha         1 VZJ       0.135000
     36 H7           7.5610    -4.4910    32.5890 hc         1 VZJ       0.084200
     37 H8           8.9370    -5.4260    31.8430 hc         1 VZJ       0.084200
     38 H9           6.8810    -3.6840    30.2980 hc         1 VZJ       0.084200
     39 H10          8.2610    -4.6240    29.5650 hc         1 VZJ       0.084200
     40 H11         17.3600     2.2920    32.5090 h1         1 VZJ       0.042033
     41 H12         18.3010     0.8120    32.3190 h1         1 VZJ       0.042033
     42 H13         17.8860     1.7840    30.9020 h1         1 VZJ       0.042033
     43 H14         12.8570    -3.5050    29.7830 ha         1 VZJ       0.170000
     44 H15         10.4280    -1.4340    31.6750 hn         1 VZJ       0.173000
     45 H16         15.4510     1.0700    32.1980 hn         1 VZJ       0.345500
     46 H17         16.3780    -2.3910    29.5900 hn         1 VZJ       0.560000
     47 H18         14.3580    -5.1710    30.4800 ha         1 VZJ       0.131000
     48 H19         14.1220    -7.2240    29.1390 ha         1 VZJ       0.124000
     49 H20         15.0360    -7.3200    26.8490 ha         1 VZJ       0.130000
     50 H21         15.5040    -6.6660    22.6590 h4         1 VZJ       0.026600
     51 N5          15.4890    -2.8830    29.6370 nu         1 VZJ      -0.959000
     52 N3          10.9370    -2.1440    31.1660 ns         1 VZJ      -0.314900
@<TRIPOS>BOND
     1     1    25 1   
     2     1    30 1   
     3     1    31 1   
     4     1    32 1   
     5     2     3 1   
     6     2     6 1   
     7     2     7 1   
     8     2    33 1   
     9     3    29 2   
    10     3    52 1   
    11     4     5 ar  
    12     4    28 ar  
    13     4    34 1   
    14     5    27 ar  
    15     5    35 1   
    16     6     7 1   
    17     6    36 1   
    18     6    37 1   
    19     7    38 1   
    20     7    39 1   
    21     8    18 1   
    22     8    40 1   
    23     8    41 1   
    24     8    42 1   
    25     9    20 ar  
    26     9    24 ar  
    27     9    25 1   
    28    10    24 1   
    29    10    26 ar  
    30    10    28 ar  
    31    11    12 ar  
    32    11    16 ar  
    33    11    17 1   
    34    12    13 ar  
    35    13    14 ar  
    36    14    15 ar  
    37    14    52 1   
    38    15    16 ar  
    39    15    43 1   
    40    16    51 1   
    41    17    18 1   
    42    17    19 2   
    43    18    45 1   
    44    20    21 ar  
    45    20    51 1   
    46    21    22 ar  
    47    21    47 1   
    48    22    23 ar  
    49    22    48 1   
    50    23    24 ar  
    51    23    49 1   
    52    26    27 ar  
    53    27    50 1   
    54    44    52 1   
    55    46    51 1   
@<TRIPOS>SUBSTRUCTURE
     1 VZJ         1 TEMP              0 ****  ****    0 ROOT
