@<TRIPOS>MOLECULE
VZL
   31    32     1     0     0
SMALL
No Charge or Current Charge


@<TRIPOS>ATOM
      1 N1          -0.4550    15.4210   -34.8200 nc         1 VZL      -0.304600
      2 C7          -2.4790    14.9210   -33.8650 cd         1 VZL      -0.276100
      3 C8          -1.9340    17.3950   -34.3640 c3         1 VZL      -0.027200
      4 N2          -3.4490    17.2660   -36.3600 ns         1 VZL      -0.502900
      5 C9          -2.2740    17.9230   -35.7740 c3         1 VZL       0.112000
      6 C1           0.4560    13.1240   -35.0010 cd         1 VZL      -0.035300
      7 C5          -0.5250    14.1110   -34.6590 cd         1 VZL      -0.079000
      8 C6          -1.6500    15.9160   -34.3380 cc         1 VZL       0.066400
      9 C4          -2.1400    12.5040   -33.7800 cd         1 VZL      -0.113000
     10 C3          -1.2040    11.5290   -34.1030 cc         1 VZL      -0.139000
     11 C2           0.0760    11.8270   -34.7040 cc         1 VZL      -0.113000
     12 O           -5.0540    18.3320   -35.1410 o          1 VZL      -0.620100
     13 C10         -4.7500    17.5000   -35.9830 c          1 VZL       0.590100
     14 C11         -5.7850    16.6430   -36.7010 c3         1 VZL      -0.175100
     15 C            1.7800    13.4810   -35.6290 c3         1 VZL      -0.037800
     16 N           -1.7290    13.7990   -34.0890 na         1 VZL       0.126100
     17 H1          -3.4690    14.9320   -33.4250 h4         1 VZL       0.233000
     18 H2          -1.0630    17.9420   -33.9850 hc         1 VZL       0.065200
     19 H3          -2.7600    17.6250   -33.6810 hc         1 VZL       0.065200
     20 H4          -3.3000    16.5520   -37.0640 hn         1 VZL       0.314500
     21 H5          -1.4150    17.7600   -36.4380 h1         1 VZL       0.061700
     22 H6          -2.4570    19.0050   -35.7240 h1         1 VZL       0.061700
     23 H7          -3.1130    12.3480   -33.3300 h4         1 VZL       0.144000
     24 H8          -1.4330    10.4870   -33.8990 ha         1 VZL       0.130000
     25 H9           0.7430    10.9990   -34.9210 ha         1 VZL       0.123000
     26 H10         -6.8100    16.8590   -36.3780 hc         1 VZL       0.058700
     27 H11         -5.6660    16.7690   -37.7830 hc         1 VZL       0.058700
     28 H12         -5.5320    15.5860   -36.5600 hc         1 VZL       0.058700
     29 H13          1.6330    13.9930   -36.5870 hc         1 VZL       0.052033
     30 H14          2.3550    14.1490   -34.9770 hc         1 VZL       0.052033
     31 H15          2.3930    12.5910   -35.8170 hc         1 VZL       0.052033
@<TRIPOS>BOND
     1     1     7 2   
     2     1     8 1   
     3     2     8 2   
     4     2    16 1   
     5     2    17 1   
     6     3     5 1   
     7     3     8 1   
     8     3    18 1   
     9     3    19 1   
    10     4     5 1   
    11     4    13 1   
    12     4    20 1   
    13     5    21 1   
    14     5    22 1   
    15     6     7 1   
    16     6    11 2   
    17     6    15 1   
    18     7    16 1   
    19     9    10 2   
    20     9    16 1   
    21     9    23 1   
    22    10    11 1   
    23    10    24 1   
    24    11    25 1   
    25    12    13 2   
    26    13    14 1   
    27    14    26 1   
    28    14    27 1   
    29    14    28 1   
    30    15    29 1   
    31    15    30 1   
    32    15    31 1   
@<TRIPOS>SUBSTRUCTURE
     1 VZL         1 TEMP              0 ****  ****    0 ROOT
