@<TRIPOS>MOLECULE
VZL
   31    32     1     0     0
SMALL
abcg2


@<TRIPOS>ATOM
      1 N1          -0.5480    15.4670   -34.8270 nc         1 VZL      -0.304600
      2 C7          -2.4140    14.9210   -33.6740 cd         1 VZL      -0.276100
      3 C8          -2.0160    17.4000   -34.2130 c3         1 VZL      -0.027200
      4 N2          -3.3350    17.2350   -36.3240 ns         1 VZL      -0.502900
      5 C9          -2.2760    17.9460   -35.6260 c3         1 VZL       0.112000
      6 C1           0.3310    13.1470   -35.1050 cd         1 VZL      -0.035300
      7 C5          -0.5790    14.1430   -34.6720 cd         1 VZL      -0.079000
      8 C6          -1.6760    15.9480   -34.2120 cc         1 VZL       0.066400
      9 C4          -2.0000    12.4580   -33.6610 cd         1 VZL      -0.113000
     10 C3          -1.1330    11.4950   -34.0730 cc         1 VZL      -0.139000
     11 C2           0.0360    11.8420   -34.7970 cc         1 VZL      -0.113000
     12 O           -5.0520    18.3400   -35.3460 o          1 VZL      -0.620100
     13 C10         -4.6450    17.4570   -36.1070 c          1 VZL       0.590100
     14 C11         -5.6020    16.5620   -36.8590 c3         1 VZL      -0.175100
     15 C            1.5550    13.5540   -35.8660 c3         1 VZL      -0.037800
     16 N           -1.7200    13.7640   -33.9610 na         1 VZL       0.126100
     17 H1          -3.3430    14.9080   -33.1300 h4         1 VZL       0.233000
     18 H2          -1.1940    17.9770   -33.7780 hc         1 VZL       0.065200
     19 H3          -2.8980    17.5670   -33.5940 hc         1 VZL       0.065200
     20 H4          -3.0740    16.4580   -36.9090 hn         1 VZL       0.314500
     21 H5          -1.3730    17.8590   -36.2280 h1         1 VZL       0.061700
     22 H6          -2.5450    19.0000   -35.5640 h1         1 VZL       0.061700
     23 H7          -2.9080    12.2720   -33.1070 h4         1 VZL       0.144000
     24 H8          -1.3460    10.4610   -33.8420 ha         1 VZL       0.130000
     25 H9           0.7120    11.0570   -35.1160 ha         1 VZL       0.123000
     26 H10         -6.2790    17.1840   -37.4460 hc         1 VZL       0.058700
     27 H11         -5.0960    15.8590   -37.5190 hc         1 VZL       0.058700
     28 H12         -6.2020    16.0070   -36.1370 hc         1 VZL       0.058700
     29 H13          1.2870    14.0810   -36.7850 hc         1 VZL       0.052033
     30 H14          2.1710    14.2380   -35.2770 hc         1 VZL       0.052033
     31 H15          2.1530    12.6810   -36.1250 hc         1 VZL       0.052033
@<TRIPOS>BOND
     1     1     7 2   
     2     1     8 1   
     3     2     8 2   
     4     2    16 1   
     5     2    17 1   
     6     3     5 1   
     7     3     8 1   
     8     3    18 1   
     9     3    19 1   
    10     4     5 1   
    11     4    13 1   
    12     4    20 1   
    13     5    21 1   
    14     5    22 1   
    15     6     7 1   
    16     6    11 2   
    17     6    15 1   
    18     7    16 1   
    19     9    10 2   
    20     9    16 1   
    21     9    23 1   
    22    10    11 1   
    23    10    24 1   
    24    11    25 1   
    25    12    13 2   
    26    13    14 1   
    27    14    26 1   
    28    14    27 1   
    29    14    28 1   
    30    15    29 1   
    31    15    30 1   
    32    15    31 1   
@<TRIPOS>SUBSTRUCTURE
     1 VZL         1 TEMP              0 ****  ****    0 ROOT
