@<TRIPOS>MOLECULE
VZM
   28    29     1     0     0
SMALL
No Charge or Current Charge


@<TRIPOS>ATOM
      1 N1          -8.2690    15.0550     4.6520 ns         1 VZM      -0.394100
      2 C4          -6.4090    14.9280     1.4520 ca         1 VZM      -0.119000
      3 C5          -8.2280    14.9490     3.2730 c          1 VZM       0.656100
      4 C6          -9.3820    15.0460     5.4900 cc         1 VZM      -0.063400
      5 C7          -9.2500    15.1630     6.8490 cd         1 VZM      -0.210000
      6 C8         -10.4890    15.1340     7.5460 cd         1 VZM      -0.104000
      7 C10         -5.0110    15.0090     1.2740 ca         1 VZM       0.345900
      8 O1          -9.2290    14.8260     2.5810 o          1 VZM      -0.605100
      9 S          -11.0880    14.8940     5.0320 ss         1 VZM       0.286000
     10 C9         -11.5780    14.9950     6.7230 cc         1 VZM      -0.285000
     11 N           -6.9310    14.9980     2.7790 ns         1 VZM      -0.155000
     12 C3          -7.2110    14.7820     0.3000 ca         1 VZM      -0.038000
     13 C2          -6.5740    14.7260    -0.9500 ca         1 VZM      -0.169000
     14 N2          -4.4010    14.9550     0.0700 nb         1 VZM      -0.742000
     15 C1          -5.1770    14.8150    -1.0260 ca         1 VZM       0.575300
     16 O           -4.5990    14.7560    -2.2730 os         1 VZM      -0.458300
     17 C           -3.1700    14.8400    -2.4400 c3         1 VZM       0.158900
     18 H1          -7.3600    15.1510     5.0880 hn         1 VZM       0.320500
     19 H2          -8.2930    15.2670     7.3510 ha         1 VZM       0.128000
     20 H3         -10.5670    15.2140     8.6270 ha         1 VZM       0.130000
     21 H4          -4.3530    15.1220     2.1350 h4         1 VZM       0.016100
     22 H5         -12.6280    14.9440     6.9770 h4         1 VZM       0.149000
     23 H6          -6.2190    15.1020     3.4910 hn         1 VZM       0.151000
     24 H7          -8.2940    14.7120     0.3480 ha         1 VZM       0.143000
     25 H8          -7.1540    14.6150    -1.8610 ha         1 VZM       0.142000
     26 H9          -2.9050    14.7730    -3.5030 h1         1 VZM       0.046367
     27 H10         -2.7850    15.7930    -2.0540 h1         1 VZM       0.046367
     28 H11         -2.6640    14.0200    -1.9130 h1         1 VZM       0.046367
@<TRIPOS>BOND
     1     1     3 1   
     2     1     4 1   
     3     1    18 1   
     4     2     7 ar  
     5     2    11 1   
     6     2    12 ar  
     7     3     8 2   
     8     3    11 1   
     9     4     5 2   
    10     4     9 1   
    11     5     6 1   
    12     5    19 1   
    13     6    10 2   
    14     6    20 1   
    15     7    14 ar  
    16     7    21 1   
    17     9    10 1   
    18    10    22 1   
    19    11    23 1   
    20    12    13 ar  
    21    12    24 1   
    22    13    15 ar  
    23    13    25 1   
    24    14    15 ar  
    25    15    16 1   
    26    16    17 1   
    27    17    26 1   
    28    17    27 1   
    29    17    28 1   
@<TRIPOS>SUBSTRUCTURE
     1 VZM         1 TEMP              0 ****  ****    0 ROOT
