@<TRIPOS>MOLECULE
VZM
   28    29     1     0     0
SMALL
abcg2


@<TRIPOS>ATOM
      1 N1          -8.0370    14.7050     4.7540 ns         1 VZM      -0.394100
      2 C4          -6.2640    14.5420     1.6090 ca         1 VZM      -0.119000
      3 C5          -7.8870    14.8120     3.4020 c          1 VZM       0.656100
      4 C6          -9.1840    15.0470     5.4420 cc         1 VZM      -0.063400
      5 C7          -9.3390    14.9720     6.7970 cd         1 VZM      -0.210000
      6 C8         -10.6320    15.3890     7.2160 cd         1 VZM      -0.104000
      7 C10         -5.0260    15.0770     1.3040 ca         1 VZM       0.345900
      8 O1          -8.7890    15.2050     2.6810 o          1 VZM      -0.605100
      9 S          -10.6160    15.6290     4.6660 ss         1 VZM       0.286000
     10 C9         -11.4240    15.7700     6.1820 cc         1 VZM      -0.285000
     11 N           -6.6600    14.4270     2.9490 ns         1 VZM      -0.155000
     12 C3          -7.0500    14.0890     0.5440 ca         1 VZM      -0.038000
     13 C2          -6.5760    14.2090    -0.7410 ca         1 VZM      -0.169000
     14 N2          -4.5510    15.1750     0.0640 nb         1 VZM      -0.742000
     15 C1          -5.3040    14.7640    -0.9310 ca         1 VZM       0.575300
     16 O           -4.8610    14.8620    -2.1870 os         1 VZM      -0.458300
     17 C           -3.5790    15.4310    -2.4010 c3         1 VZM       0.158900
     18 H1          -7.2720    14.3640     5.3170 hn         1 VZM       0.320500
     19 H2          -8.5590    14.6330     7.4660 ha         1 VZM       0.128000
     20 H3         -10.9470    15.4040     8.2490 ha         1 VZM       0.130000
     21 H4          -4.3780    15.4340     2.0980 h4         1 VZM       0.016100
     22 H5         -12.4400    16.1310     6.2160 h4         1 VZM       0.149000
     23 H6          -5.9250    14.2740     3.6230 hn         1 VZM       0.151000
     24 H7          -8.0150    13.6350     0.7200 ha         1 VZM       0.143000
     25 H8          -7.1620    13.8710    -1.5850 ha         1 VZM       0.142000
     26 H9          -3.4150    15.4000    -3.4750 h1         1 VZM       0.046367
     27 H10         -3.5330    16.4670    -2.0620 h1         1 VZM       0.046367
     28 H11         -2.7930    14.8650    -1.9000 h1         1 VZM       0.046367
@<TRIPOS>BOND
     1     1     3 1   
     2     1     4 1   
     3     1    18 1   
     4     2     7 ar  
     5     2    11 1   
     6     2    12 ar  
     7     3     8 2   
     8     3    11 1   
     9     4     5 2   
    10     4     9 1   
    11     5     6 1   
    12     5    19 1   
    13     6    10 2   
    14     6    20 1   
    15     7    14 ar  
    16     7    21 1   
    17     9    10 1   
    18    10    22 1   
    19    11    23 1   
    20    12    13 ar  
    21    12    24 1   
    22    13    15 ar  
    23    13    25 1   
    24    14    15 ar  
    25    15    16 1   
    26    16    17 1   
    27    17    26 1   
    28    17    27 1   
    29    17    28 1   
@<TRIPOS>SUBSTRUCTURE
     1 VZM         1 TEMP              0 ****  ****    0 ROOT
