@<TRIPOS>MOLECULE
VZN
   35    36     1     0     0
SMALL
abcg2


@<TRIPOS>ATOM
      1 C1          13.7780   -11.1940   -22.5440 c3         1 VZN      -0.027800
      2 C10         12.3230   -11.7880   -18.6900 c3         1 VZN       0.117300
      3 C11         11.0160   -12.4980   -18.9070 ca         1 VZN       0.343300
      4 C12          9.8000   -11.8800   -18.6250 ca         1 VZN      -0.127000
      5 C13          8.6230   -12.5780   -18.8500 ca         1 VZN      -0.075000
      6 C14          8.6990   -13.8640   -19.3690 ca         1 VZN      -0.126000
      7 C15          9.9560   -14.4070   -19.6180 ca         1 VZN       0.327300
      8 C16         10.1040   -15.7950   -20.1690 c3         1 VZN       0.104300
      9 C2          14.6040   -10.7750   -21.3610 ca         1 VZN      -0.127300
     10 C3          15.8750   -10.2160   -21.5020 ca         1 VZN       0.160100
     11 C4          16.6320    -9.8300   -20.3930 ca         1 VZN      -0.229000
     12 C5          16.1120   -10.0070   -19.1220 ca         1 VZN      -0.041000
     13 C6          14.8530   -10.5690   -18.9360 ca         1 VZN      -0.228000
     14 C7          14.1150   -10.9530   -20.0550 ca         1 VZN       0.165100
     15 N16         11.0900   -13.7430   -19.3820 nb         1 VZN      -0.630000
     16 N17         10.6880   -16.7890   -22.2750 no         1 VZN       0.767000
     17 O15         10.3860   -15.6130   -21.5910 os         1 VZN      -0.381000
     18 O18         10.9370   -16.6050   -23.4390 o          1 VZN      -0.357500
     19 O21         10.6680   -17.8280   -21.6640 o          1 VZN      -0.357500
     20 O8          16.3590   -10.0590   -22.7740 oh         1 VZN      -0.536100
     21 O9          12.8750   -11.5180   -19.9810 os         1 VZN      -0.338100
     22 H1          13.7390   -12.2840   -22.6340 hc         1 VZN       0.048367
     23 H2          12.7490   -10.8480   -22.4400 hc         1 VZN       0.048367
     24 H3          14.1900   -10.7940   -23.4670 hc         1 VZN       0.048367
     25 H4          13.0040   -12.4290   -18.1230 h1         1 VZN       0.051200
     26 H5          12.1710   -10.8570   -18.1400 h1         1 VZN       0.051200
     27 H6           9.7840   -10.8700   -18.2340 ha         1 VZN       0.130000
     28 H7           7.6630   -12.1270   -18.6340 ha         1 VZN       0.128000
     29 H8           7.8060   -14.4400   -19.5720 ha         1 VZN       0.129000
     30 H9           9.1920   -16.3800   -20.0670 h1         1 VZN       0.077200
     31 H10         10.9440   -16.3090   -19.7090 h1         1 VZN       0.077200
     32 H11         17.6150    -9.3990   -20.5380 ha         1 VZN       0.115000
     33 H12         16.6940    -9.7060   -18.2580 ha         1 VZN       0.112000
     34 H13         14.4630   -10.7000   -17.9380 ha         1 VZN       0.116000
     35 H16         17.2340    -9.6500   -22.7380 ho         1 VZN       0.461000
@<TRIPOS>BOND
     1     1     9 1   
     2     1    22 1   
     3     1    23 1   
     4     1    24 1   
     5     2     3 1   
     6     2    21 1   
     7     2    25 1   
     8     2    26 1   
     9     3     4 ar  
    10     3    15 ar  
    11     4     5 ar  
    12     4    27 1   
    13     5     6 ar  
    14     5    28 1   
    15     6     7 ar  
    16     6    29 1   
    17     7     8 1   
    18     7    15 ar  
    19     8    17 1   
    20     8    30 1   
    21     8    31 1   
    22     9    10 ar  
    23     9    14 ar  
    24    10    11 ar  
    25    10    20 1   
    26    11    12 ar  
    27    11    32 1   
    28    12    13 ar  
    29    12    33 1   
    30    13    14 ar  
    31    13    34 1   
    32    14    21 1   
    33    16    17 1   
    34    16    18 1   
    35    16    19 1   
    36    20    35 1   
@<TRIPOS>SUBSTRUCTURE
     1 VZN         1 TEMP              0 ****  ****    0 ROOT
