@<TRIPOS>MOLECULE
VZN
   35    36     1     0     0
SMALL
No Charge or Current Charge


@<TRIPOS>ATOM
      1 C1          13.8240    -9.9190   -22.4430 c3         1 VZN      -0.027800
      2 C10         12.6490   -12.2700   -19.0620 c3         1 VZN       0.117300
      3 C11         11.2650   -12.8200   -19.4090 ca         1 VZN       0.343300
      4 C12         10.1990   -11.9450   -19.6950 ca         1 VZN      -0.127000
      5 C13          8.9370   -12.4760   -20.0070 ca         1 VZN      -0.075000
      6 C14          8.7910   -13.8720   -20.0180 ca         1 VZN      -0.126000
      7 C15          9.9020   -14.6850   -19.7200 ca         1 VZN       0.327300
      8 C16          9.7740   -16.2060   -19.7210 c3         1 VZN       0.104300
      9 C2          14.7520   -10.0410   -21.2290 ca         1 VZN      -0.127300
     10 C3          16.0100    -9.3970   -21.2110 ca         1 VZN       0.160100
     11 C4          16.8540    -9.5140   -20.0970 ca         1 VZN      -0.229000
     12 C5          16.4610   -10.2780   -18.9890 ca         1 VZN      -0.041000
     13 C6          15.2190   -10.9300   -18.9970 ca         1 VZN      -0.228000
     14 C7          14.3620   -10.8190   -20.1140 ca         1 VZN       0.165100
     15 N16         11.1200   -14.1690   -19.4170 nb         1 VZN      -0.630000
     16 N17          9.3070   -18.0930   -21.2420 no         1 VZN       0.767000
     17 O15          9.4620   -16.6680   -21.0560 os         1 VZN      -0.381000
     18 O18          9.0320   -18.4590   -22.3880 o          1 VZN      -0.357500
     19 O21          9.4280   -18.8250   -20.2500 o          1 VZN      -0.357500
     20 O8          16.4330    -8.6540   -22.2740 oh         1 VZN      -0.536100
     21 O9          13.1380   -11.4610   -20.1520 os         1 VZN      -0.338100
     22 H1          13.9810   -10.7530   -23.1370 hc         1 VZN       0.048367
     23 H2          12.7670    -9.9230   -22.1510 hc         1 VZN       0.048367
     24 H3          13.9860    -8.9880   -22.9990 hc         1 VZN       0.048367
     25 H4          13.3350   -13.1040   -18.8650 h1         1 VZN       0.051200
     26 H5          12.5660   -11.6720   -18.1460 h1         1 VZN       0.051200
     27 H6          10.3560   -10.8690   -19.6770 ha         1 VZN       0.130000
     28 H7           8.0960   -11.8230   -20.2340 ha         1 VZN       0.128000
     29 H8           7.8320   -14.3240   -20.2560 ha         1 VZN       0.129000
     30 H9           8.9820   -16.4890   -19.0160 h1         1 VZN       0.077200
     31 H10         10.7140   -16.6500   -19.3660 h1         1 VZN       0.077200
     32 H11         17.8210    -9.0170   -20.0820 ha         1 VZN       0.115000
     33 H12         17.1190   -10.3670   -18.1260 ha         1 VZN       0.112000
     34 H13         14.9430   -11.5190   -18.1280 ha         1 VZN       0.116000
     35 H16         17.3230    -8.3000   -22.0660 ho         1 VZN       0.461000
@<TRIPOS>BOND
     1     1     9 1   
     2     1    22 1   
     3     1    23 1   
     4     1    24 1   
     5     2     3 1   
     6     2    21 1   
     7     2    25 1   
     8     2    26 1   
     9     3     4 ar  
    10     3    15 ar  
    11     4     5 ar  
    12     4    27 1   
    13     5     6 ar  
    14     5    28 1   
    15     6     7 ar  
    16     6    29 1   
    17     7     8 1   
    18     7    15 ar  
    19     8    17 1   
    20     8    30 1   
    21     8    31 1   
    22     9    10 ar  
    23     9    14 ar  
    24    10    11 ar  
    25    10    20 1   
    26    11    12 ar  
    27    11    32 1   
    28    12    13 ar  
    29    12    33 1   
    30    13    14 ar  
    31    13    34 1   
    32    14    21 1   
    33    16    17 1   
    34    16    18 1   
    35    16    19 1   
    36    20    35 1   
@<TRIPOS>SUBSTRUCTURE
     1 VZN         1 TEMP              0 ****  ****    0 ROOT
