@<TRIPOS>MOLECULE
VZP
   33    33     1     0     0
SMALL
abcg2


@<TRIPOS>ATOM
      1 N1          19.9170    28.0990     5.3570 n          1 VZP      -0.427800
      2 C4          19.8430    28.5480     3.9730 c3         1 VZP       0.078300
      3 C5          20.9660    27.1820     5.7950 c5         1 VZP       0.138700
      4 C6          22.3620    27.8430     5.9420 c5         1 VZP      -0.090400
      5 C7          23.0540    27.8480     4.5830 c5         1 VZP      -0.287400
      6 C8          21.1350    25.9690     4.8680 c5         1 VZP      -0.293400
      7 S           22.6160    26.2580     3.8520 s6         1 VZP       1.051000
      8 O1          22.2720    26.4070     2.4470 o          1 VZP      -0.520500
      9 C3          19.2270    28.7610     6.3530 c          1 VZP       0.648100
     10 O           19.3690    28.4720     7.5500 o          1 VZP      -0.649100
     11 N           18.3930    29.7580     5.9520 ns         1 VZP      -0.514900
     12 C1          17.4640    30.4180     6.8670 c3         1 VZP       0.118700
     13 C2          17.2030    31.8350     6.3680 c3         1 VZP      -0.108600
     14 C           16.1690    29.6200     7.0210 c3         1 VZP      -0.108600
     15 H1          18.8080    28.5700     3.6270 h1         1 VZP       0.042033
     16 H2          20.2870    29.5380     3.8330 h1         1 VZP       0.042033
     17 H3          20.3650    27.8490     3.3270 h1         1 VZP       0.042033
     18 H4          20.6540    26.8300     6.7720 h1         1 VZP       0.112700
     19 H5          22.9510    27.2610     6.6530 hc         1 VZP       0.077700
     20 H6          22.2630    28.8540     6.3360 hc         1 VZP       0.077700
     21 H7          24.1390    27.8980     4.6310 h1         1 VZP       0.108200
     22 H8          22.6770    28.6200     3.9160 h1         1 VZP       0.108200
     23 H9          20.2920    25.7870     4.2080 h1         1 VZP       0.116700
     24 H10         21.3490    25.0720     5.4460 h1         1 VZP       0.116700
     25 H11         18.2230    29.8980     4.9700 hn         1 VZP       0.306500
     26 H12         17.9650    30.4630     7.8340 h1         1 VZP       0.082700
     27 H13         16.5180    32.3520     7.0420 hc         1 VZP       0.042367
     28 H14         18.1310    32.4060     6.3110 hc         1 VZP       0.042367
     29 H15         16.7470    31.8160     5.3750 hc         1 VZP       0.042367
     30 H16         15.5050    30.1020     7.7410 hc         1 VZP       0.042367
     31 H17         15.6470    29.5530     6.0630 hc         1 VZP       0.042367
     32 H18         16.3800    28.6080     7.3700 hc         1 VZP       0.042367
     33 O2          23.6250    25.2660     4.1890 o          1 VZP      -0.520500
@<TRIPOS>BOND
     1     1     2 1   
     2     1     3 1   
     3     1     9 1   
     4     2    15 1   
     5     2    16 1   
     6     2    17 1   
     7     3     4 1   
     8     3     6 1   
     9     3    18 1   
    10     4     5 1   
    11     4    19 1   
    12     4    20 1   
    13     5     7 1   
    14     5    21 1   
    15     5    22 1   
    16     6     7 1   
    17     6    23 1   
    18     6    24 1   
    19     7     8 2   
    20     7    33 2   
    21     9    10 2   
    22     9    11 1   
    23    11    12 1   
    24    11    25 1   
    25    12    13 1   
    26    12    14 1   
    27    12    26 1   
    28    13    27 1   
    29    13    28 1   
    30    13    29 1   
    31    14    30 1   
    32    14    31 1   
    33    14    32 1   
@<TRIPOS>SUBSTRUCTURE
     1 VZP         1 TEMP              0 ****  ****    0 ROOT
