@<TRIPOS>MOLECULE
VZP
   33    33     1     0     0
SMALL
No Charge or Current Charge


@<TRIPOS>ATOM
      1 N1          19.9710    28.0570     5.3540 n          1 VZP      -0.427800
      2 C4          19.7100    28.4280     3.9300 c3         1 VZP       0.078300
      3 C5          20.9220    26.9810     5.8110 c5         1 VZP       0.138700
      4 C6          22.3000    27.6710     6.1100 c5         1 VZP      -0.090400
      5 C7          22.9440    27.9630     4.7240 c5         1 VZP      -0.287400
      6 C8          21.1810    25.9340     4.6700 c5         1 VZP      -0.293400
      7 S           22.7730    26.3650     3.8230 s6         1 VZP       1.051000
      8 O1          22.5460    26.6100     2.3930 o          1 VZP      -0.520500
      9 C3          19.2590    28.7410     6.3720 c          1 VZP       0.648100
     10 O           19.4180    28.4990     7.5590 o          1 VZP      -0.649100
     11 N           18.3670    29.7020     5.9540 ns         1 VZP      -0.514900
     12 C1          17.5240    30.5070     6.8360 c3         1 VZP       0.118700
     13 C2          17.2350    31.8740     6.1890 c3         1 VZP      -0.108600
     14 C           16.2320    29.7470     7.1960 c3         1 VZP      -0.108600
     15 H1          18.6850    28.1460     3.6580 h1         1 VZP       0.042033
     16 H2          19.8350    29.5100     3.7980 h1         1 VZP       0.042033
     17 H3          20.3980    27.9350     3.2390 h1         1 VZP       0.042033
     18 H4          20.5310    26.4740     6.7060 h1         1 VZP       0.112700
     19 H5          22.9370    27.0010     6.7010 hc         1 VZP       0.077700
     20 H6          22.1840    28.5820     6.7090 hc         1 VZP       0.077700
     21 H7          24.0100    28.2100     4.7700 h1         1 VZP       0.108200
     22 H8          22.4110    28.7240     4.1440 h1         1 VZP       0.108200
     23 H9          20.3880    25.8660     3.9190 h1         1 VZP       0.116700
     24 H10         21.3510    24.9330     5.0810 h1         1 VZP       0.116700
     25 H11         18.2880    29.8430     4.9570 hn         1 VZP       0.306500
     26 H12         18.0780    30.6930     7.7670 h1         1 VZP       0.082700
     27 H13         16.6390    32.5010     6.8630 hc         1 VZP       0.042367
     28 H14         18.1700    32.4030     5.9720 hc         1 VZP       0.042367
     29 H15         16.6800    31.7540     5.2500 hc         1 VZP       0.042367
     30 H16         15.6130    30.3410     7.8790 hc         1 VZP       0.042367
     31 H17         15.6420    29.5320     6.2970 hc         1 VZP       0.042367
     32 H18         16.4660    28.7970     7.6910 hc         1 VZP       0.042367
     33 O2          23.8290    25.4380     4.2500 o          1 VZP      -0.520500
@<TRIPOS>BOND
     1     1     2 1   
     2     1     3 1   
     3     1     9 1   
     4     2    15 1   
     5     2    16 1   
     6     2    17 1   
     7     3     4 1   
     8     3     6 1   
     9     3    18 1   
    10     4     5 1   
    11     4    19 1   
    12     4    20 1   
    13     5     7 1   
    14     5    21 1   
    15     5    22 1   
    16     6     7 1   
    17     6    23 1   
    18     6    24 1   
    19     7     8 2   
    20     7    33 2   
    21     9    10 2   
    22     9    11 1   
    23    11    12 1   
    24    11    25 1   
    25    12    13 1   
    26    12    14 1   
    27    12    26 1   
    28    13    27 1   
    29    13    28 1   
    30    13    29 1   
    31    14    30 1   
    32    14    31 1   
    33    14    32 1   
@<TRIPOS>SUBSTRUCTURE
     1 VZP         1 TEMP              0 ****  ****    0 ROOT
