@<TRIPOS>MOLECULE
VZQ
   23    23     1     0     0
SMALL
abcg2


@<TRIPOS>ATOM
      1 C7          34.1410    24.8350    19.6850 ca         1 VZQ      -0.095500
      2 C8          35.1410    25.7350    20.0260 ca         1 VZQ      -0.110000
      3 C9          32.8190    23.4870    17.9830 c          1 VZQ       0.703600
      4 O1          38.1940    26.4250    19.8400 os         1 VZQ      -0.444100
      5 C1          39.2790    26.9840    20.4030 c          1 VZQ       0.597100
      6 C5          34.7300    25.0500    17.3700 ca         1 VZQ      -0.095500
      7 C6          33.9220    24.4790    18.3530 ca         1 VZQ      -0.107600
      8 C4          35.7360    25.9470    17.7080 ca         1 VZQ      -0.110000
      9 C3          35.9530    26.2960    19.0400 ca         1 VZQ      -0.146300
     10 O3          32.1580    22.9920    18.9310 o          1 VZQ      -0.718500
     11 C2          37.0550    27.2360    19.4180 c3         1 VZQ       0.238900
     12 O2          32.6600    23.2420    16.7600 o          1 VZQ      -0.718500
     13 O           40.1870    26.2490    20.7290 o          1 VZQ      -0.464000
     14 C           39.3020    28.4720    20.5990 c3         1 VZQ      -0.207100
     15 H1          33.5130    24.3990    20.4500 ha         1 VZQ       0.132000
     16 H2          35.2960    26.0070    21.0640 ha         1 VZQ       0.087500
     17 H3          34.5600    24.7810    16.3360 ha         1 VZQ       0.132000
     18 H4          36.3590    26.3810    16.9340 ha         1 VZQ       0.087500
     19 H6          37.3600    27.8500    18.5700 h1         1 VZQ       0.029200
     20 H7          36.7530    27.8780    20.2440 h1         1 VZQ       0.029200
     21 H8          40.2660    28.7580    21.0110 hc         1 VZQ       0.060700
     22 H9          39.1350    28.9930    19.6550 hc         1 VZQ       0.060700
     23 H10         38.5100    28.7750    21.2870 hc         1 VZQ       0.060700
@<TRIPOS>BOND
     1     1     2 ar  
     2     1     7 ar  
     3     1    15 1   
     4     2     9 ar  
     5     2    16 1   
     6     3     7 1   
     7     3    10 1   
     8     3    12 1   
     9     4     5 1   
    10     4    11 1   
    11     5    13 2   
    12     5    14 1   
    13     6     7 ar  
    14     6     8 ar  
    15     6    17 1   
    16     8     9 ar  
    17     8    18 1   
    18     9    11 1   
    19    11    19 1   
    20    11    20 1   
    21    14    21 1   
    22    14    22 1   
    23    14    23 1   
@<TRIPOS>SUBSTRUCTURE
     1 VZQ         1 TEMP              0 ****  ****    0 ROOT
