@<TRIPOS>MOLECULE
VZQ
   23    23     1     0     0
SMALL
No Charge or Current Charge


@<TRIPOS>ATOM
      1 C7          34.0330    24.8130    19.6860 ca         1 VZQ      -0.095500
      2 C8          35.0530    25.6900    20.0960 ca         1 VZQ      -0.110000
      3 C9          32.7760    23.5170    17.8780 c          1 VZQ       0.703600
      4 O1          38.2150    26.4090    19.9050 os         1 VZQ      -0.444100
      5 C1          39.3820    26.9990    20.3370 c          1 VZQ       0.597100
      6 C5          34.7810    25.0240    17.3840 ca         1 VZQ      -0.095500
      7 C6          33.8800    24.4660    18.3230 ca         1 VZQ      -0.107600
      8 C4          35.8000    25.9000    17.7970 ca         1 VZQ      -0.110000
      9 C3          35.9420    26.2400    19.1540 ca         1 VZQ      -0.146300
     10 O3          32.0210    23.0590    18.7230 o          1 VZQ      -0.718500
     11 C2          37.0450    27.1910    19.5990 c3         1 VZQ       0.238900
     12 O2          32.6810    23.2450    16.6890 o          1 VZQ      -0.718500
     13 O           40.3720    26.3340    20.5960 o          1 VZQ      -0.464000
     14 C           39.3810    28.5310    20.4790 c3         1 VZQ      -0.207100
     15 H1          33.3600    24.4030    20.4360 ha         1 VZQ       0.132000
     16 H2          35.1520    25.9410    21.1500 ha         1 VZQ       0.087500
     17 H3          34.6930    24.7780    16.3280 ha         1 VZQ       0.132000
     18 H4          36.4810    26.3150    17.0570 ha         1 VZQ       0.087500
     19 H6          37.2490    27.9060    18.7910 h1         1 VZQ       0.029200
     20 H7          36.7030    27.7500    20.4800 h1         1 VZQ       0.029200
     21 H8          40.3490    28.9090    20.8270 hc         1 VZQ       0.060700
     22 H9          39.1030    28.9920    19.5260 hc         1 VZQ       0.060700
     23 H10         38.5760    28.8410    21.1540 hc         1 VZQ       0.060700
@<TRIPOS>BOND
     1     1     2 ar  
     2     1     7 ar  
     3     1    15 1   
     4     2     9 ar  
     5     2    16 1   
     6     3     7 1   
     7     3    10 1   
     8     3    12 1   
     9     4     5 1   
    10     4    11 1   
    11     5    13 2   
    12     5    14 1   
    13     6     7 ar  
    14     6     8 ar  
    15     6    17 1   
    16     8     9 ar  
    17     8    18 1   
    18     9    11 1   
    19    11    19 1   
    20    11    20 1   
    21    14    21 1   
    22    14    22 1   
    23    14    23 1   
@<TRIPOS>SUBSTRUCTURE
     1 VZQ         1 TEMP              0 ****  ****    0 ROOT
