@<TRIPOS>MOLECULE
VZR
   55    59     1     0     0
SMALL
No Charge or Current Charge


@<TRIPOS>ATOM
      1 N1           3.2030    16.7130    43.1030 nc         1 VZR      -0.343000
      2 C2           3.6260    18.4860    47.2840 ca         1 VZR      -0.089300
      3 C4           4.4050    16.5140    44.9820 cd         1 VZR      -0.170000
      4 C5           4.3810    16.2770    43.6420 cc         1 VZR       0.149300
      5 C7           5.5830    13.4820    44.0330 ca         1 VZR       0.166100
      6 C8           4.2800    13.0810    43.6780 ca         1 VZR      -0.173000
      7 C9           3.7450    11.8960    44.2010 ca         1 VZR       0.193100
      8 C10          1.8420    10.4060    44.2830 c          1 VZR       0.672300
      9 C11          2.6120     9.5550    45.1990 cc         1 VZR      -0.342200
     10 C12          3.8920     9.8550    45.6020 cd         1 VZR       0.053600
     11 C13          4.6320     8.9390    46.5470 c3         1 VZR      -0.064900
     12 C15          5.8020    11.4910    45.4250 ca         1 VZR      -0.037000
     13 C16          6.3370    12.6800    44.9020 ca         1 VZR      -0.160000
     14 C18          5.1350    20.4060    47.3460 ca         1 VZR      -0.080000
     15 C19          5.4140    20.1530    48.7030 ca         1 VZR       0.082100
     16 C20          7.4530    21.4510    48.8680 ca         1 VZR       0.135100
     17 C21          7.8800    22.7440    49.2130 ca         1 VZR      -0.154000
     18 C22          9.0820    23.2530    48.6900 ca         1 VZR      -0.079000
     19 C23          9.8610    22.4630    47.8260 ca         1 VZR      -0.140000
     20 O3           0.7060    10.1260    43.9330 o          1 VZR      -0.486000
     21 O2           2.4720    11.5360    43.8390 os         1 VZR      -0.338200
     22 C14          4.4940    11.0890    45.0780 ca         1 VZR      -0.166800
     23 O1           6.1690    14.6400    43.5590 os         1 VZR      -0.364100
     24 C6           5.4480    15.6280    42.7870 c3         1 VZR       0.150300
     25 N2           2.4700    17.2210    44.0620 nd         1 VZR      -0.200800
     26 N            3.1890    17.1090    45.2260 na         1 VZR       0.114800
     27 C3           2.6620    17.5800    46.5180 c3         1 VZR       0.130900
     28 C1           3.8920    18.2460    48.6480 ca         1 VZR      -0.183000
     29 C17          4.2480    19.5750    46.6410 ca         1 VZR      -0.106000
     30 C            4.7780    19.0740    49.3590 ca         1 VZR       0.125100
     31 O            5.0200    18.8180    50.6820 oh         1 VZR      -0.512100
     32 O4           6.2770    20.9730    49.4030 os         1 VZR      -0.245200
     33 C25          8.2410    20.6550    48.0120 ca         1 VZR      -0.154000
     34 C24          9.4430    21.1640    47.4890 ca         1 VZR      -0.079000
     35 H1           5.1510    16.3130    45.7400 h4         1 VZR       0.169000
     36 H2           3.6690    13.6690    43.0030 ha         1 VZR       0.149000
     37 H3           2.0930     8.6670    45.5370 ha         1 VZR       0.211000
     38 H4           4.9050     9.4640    47.4690 hc         1 VZR       0.054367
     39 H5           4.0250     8.0710    46.8320 hc         1 VZR       0.054367
     40 H6           5.5510     8.5580    46.0860 hc         1 VZR       0.054367
     41 H7           6.4120    10.8930    46.0980 ha         1 VZR       0.118000
     42 H8           7.3440    12.9840    45.1740 ha         1 VZR       0.128000
     43 H9           5.6020    21.2470    46.8390 ha         1 VZR       0.140000
     44 H10          7.2770    23.3520    49.8820 ha         1 VZR       0.124500
     45 H11          9.4090    24.2570    48.9540 ha         1 VZR       0.113500
     46 H12         10.7920    22.8560    47.4220 ha         1 VZR       0.116000
     47 H13          6.1360    16.4110    42.4450 h1         1 VZR       0.075700
     48 H14          4.9950    15.1780    41.8950 h1         1 VZR       0.075700
     49 H15          1.7270    18.1250    46.3390 h1         1 VZR       0.080700
     50 H16          2.4190    16.6980    47.1220 h1         1 VZR       0.080700
     51 H17          3.4070    17.4120    49.1510 ha         1 VZR       0.115000
     52 H18          4.0430    19.7830    45.5920 ha         1 VZR       0.138000
     53 H19          4.4890    18.0380    50.9510 ho         1 VZR       0.464000
     54 H20          7.9290    19.6460    47.7570 ha         1 VZR       0.124500
     55 H21         10.0510    20.5510    46.8260 ha         1 VZR       0.113500
@<TRIPOS>BOND
     1     1     4 1   
     2     1    25 2   
     3     2    27 1   
     4     2    28 ar  
     5     2    29 ar  
     6     3     4 2   
     7     3    26 1   
     8     3    35 1   
     9     4    24 1   
    10     5     6 ar  
    11     5    13 ar  
    12     5    23 1   
    13     6     7 ar  
    14     6    36 1   
    15     7    21 1   
    16     7    22 ar  
    17     8     9 1   
    18     8    20 2   
    19     8    21 1   
    20     9    10 2   
    21     9    37 1   
    22    10    11 1   
    23    10    22 1   
    24    11    38 1   
    25    11    39 1   
    26    11    40 1   
    27    12    13 ar  
    28    12    22 ar  
    29    12    41 1   
    30    13    42 1   
    31    14    15 ar  
    32    14    29 ar  
    33    14    43 1   
    34    15    30 ar  
    35    15    32 1   
    36    16    17 ar  
    37    16    32 1   
    38    16    33 ar  
    39    17    18 ar  
    40    17    44 1   
    41    18    19 ar  
    42    18    45 1   
    43    19    34 ar  
    44    19    46 1   
    45    23    24 1   
    46    24    47 1   
    47    24    48 1   
    48    25    26 1   
    49    26    27 1   
    50    27    49 1   
    51    27    50 1   
    52    28    30 ar  
    53    28    51 1   
    54    29    52 1   
    55    30    31 1   
    56    31    53 1   
    57    33    34 ar  
    58    33    54 1   
    59    34    55 1   
@<TRIPOS>SUBSTRUCTURE
     1 VZR         1 TEMP              0 ****  ****    0 ROOT
