@<TRIPOS>MOLECULE
VZR
   55    59     1     0     0
SMALL
abcg2


@<TRIPOS>ATOM
      1 N1           3.7860    16.1980    44.2630 nc         1 VZR      -0.343000
      2 C2           4.2040    18.3050    48.0080 ca         1 VZR      -0.089300
      3 C4           5.1400    15.9280    45.9910 cd         1 VZR      -0.170000
      4 C5           5.0120    15.7400    44.6330 cc         1 VZR       0.149300
      5 C7           5.6510    12.9010    44.2210 ca         1 VZR       0.166100
      6 C8           4.7580    12.5250    43.2270 ca         1 VZR      -0.173000
      7 C9           3.9280    11.4370    43.4540 ca         1 VZR       0.193100
      8 C10          2.2280    10.0230    42.5160 c          1 VZR       0.672300
      9 C11          2.2640     9.2570    43.7290 cc         1 VZR      -0.342200
     10 C12          3.0790     9.5600    44.7720 cd         1 VZR       0.053600
     11 C13          3.0490     8.7030    46.0040 c3         1 VZR      -0.064900
     12 C15          4.8860    11.1070    45.6260 ca         1 VZR      -0.037000
     13 C16          5.7100    12.1940    45.4260 ca         1 VZR      -0.160000
     14 C18          4.3290    20.6860    47.6780 ca         1 VZR      -0.080000
     15 C19          5.3310    20.7700    48.6310 ca         1 VZR       0.082100
     16 C20          7.0410    22.4130    48.4430 ca         1 VZR       0.135100
     17 C21          7.5340    23.6310    48.9040 ca         1 VZR      -0.154000
     18 C22          8.7340    24.1170    48.4060 ca         1 VZR      -0.079000
     19 C23          9.4450    23.3980    47.4470 ca         1 VZR      -0.140000
     20 O3           1.5320     9.8030    41.5420 o          1 VZR      -0.486000
     21 O2           3.0610    11.1210    42.4490 os         1 VZR      -0.338200
     22 C14          3.9670    10.6940    44.6460 ca         1 VZR      -0.166800
     23 O1           6.5340    13.9330    44.0470 os         1 VZR      -0.364100
     24 C6           5.9770    15.2010    43.6350 c3         1 VZR       0.150300
     25 N2           3.1600    16.6520    45.3160 nd         1 VZR      -0.200800
     26 N            3.9670    16.4730    46.3710 na         1 VZR       0.114800
     27 C3           3.5850    16.9650    47.6950 c3         1 VZR       0.130900
     28 C1           5.2120    18.3900    48.9640 ca         1 VZR      -0.183000
     29 C17          3.7560    19.4590    47.3690 ca         1 VZR      -0.106000
     30 C            5.7850    19.6190    49.2800 ca         1 VZR       0.125100
     31 O            6.7780    19.7610    50.1970 oh         1 VZR      -0.512100
     32 O4           5.8450    22.0010    48.9910 os         1 VZR      -0.245200
     33 C25          7.7370    21.6840    47.4840 ca         1 VZR      -0.154000
     34 C24          8.9400    22.1850    46.9940 ca         1 VZR      -0.079000
     35 H1           5.9080    15.6690    46.6960 h4         1 VZR       0.169000
     36 H2           4.6830    13.0650    42.2940 ha         1 VZR       0.149000
     37 H3           1.5930     8.4110    43.7730 ha         1 VZR       0.211000
     38 H4           3.6930     9.0690    46.7980 hc         1 VZR       0.054367
     39 H5           2.0300     8.6430    46.3890 hc         1 VZR       0.054367
     40 H6           3.3630     7.6880    45.7510 hc         1 VZR       0.054367
     41 H7           4.9480    10.5710    46.5620 ha         1 VZR       0.118000
     42 H8           6.4080    12.5140    46.1870 ha         1 VZR       0.128000
     43 H9           3.9930    21.5980    47.2010 ha         1 VZR       0.140000
     44 H10          6.9730    24.1760    49.6520 ha         1 VZR       0.124500
     45 H11          9.1060    25.0680    48.7650 ha         1 VZR       0.113500
     46 H12         10.3860    23.7760    47.0680 ha         1 VZR       0.116000
     47 H13          6.8460    15.8490    43.5320 h1         1 VZR       0.075700
     48 H14          5.4820    15.1220    42.6660 h1         1 VZR       0.075700
     49 H15          2.4980    17.0230    47.6910 h1         1 VZR       0.080700
     50 H16          3.8920    16.2180    48.4250 h1         1 VZR       0.080700
     51 H17          5.5610    17.4980    49.4730 ha         1 VZR       0.115000
     52 H18          2.9720    19.3990    46.6250 ha         1 VZR       0.138000
     53 H19          6.9890    18.9060    50.5940 ho         1 VZR       0.464000
     54 H20          7.3490    20.7410    47.1270 ha         1 VZR       0.124500
     55 H21          9.4820    21.6140    46.2500 ha         1 VZR       0.113500
@<TRIPOS>BOND
     1     1     4 1   
     2     1    25 2   
     3     2    27 1   
     4     2    28 ar  
     5     2    29 ar  
     6     3     4 2   
     7     3    26 1   
     8     3    35 1   
     9     4    24 1   
    10     5     6 ar  
    11     5    13 ar  
    12     5    23 1   
    13     6     7 ar  
    14     6    36 1   
    15     7    21 1   
    16     7    22 ar  
    17     8     9 1   
    18     8    20 2   
    19     8    21 1   
    20     9    10 2   
    21     9    37 1   
    22    10    11 1   
    23    10    22 1   
    24    11    38 1   
    25    11    39 1   
    26    11    40 1   
    27    12    13 ar  
    28    12    22 ar  
    29    12    41 1   
    30    13    42 1   
    31    14    15 ar  
    32    14    29 ar  
    33    14    43 1   
    34    15    30 ar  
    35    15    32 1   
    36    16    17 ar  
    37    16    32 1   
    38    16    33 ar  
    39    17    18 ar  
    40    17    44 1   
    41    18    19 ar  
    42    18    45 1   
    43    19    34 ar  
    44    19    46 1   
    45    23    24 1   
    46    24    47 1   
    47    24    48 1   
    48    25    26 1   
    49    26    27 1   
    50    27    49 1   
    51    27    50 1   
    52    28    30 ar  
    53    28    51 1   
    54    29    52 1   
    55    30    31 1   
    56    31    53 1   
    57    33    34 ar  
    58    33    54 1   
    59    34    55 1   
@<TRIPOS>SUBSTRUCTURE
     1 VZR         1 TEMP              0 ****  ****    0 ROOT
