@<TRIPOS>MOLECULE
VZS
   31    32     1     0     0
SMALL
No Charge or Current Charge


@<TRIPOS>ATOM
      1 N1           4.5300    25.5150    16.3360 ns         1 VZS      -0.411200
      2 N3           7.6190    24.8810    18.0240 nc         1 VZS      -0.351500
      3 C4           1.0920    30.2510    15.8410 ca         1 VZS      -0.076300
      4 C5           1.4360    31.7020    16.1470 c3         1 VZS      -0.044800
      5 C6           2.0580    29.2440    16.0220 ca         1 VZS      -0.106000
      6 C7           1.7530    27.8930    15.7390 ca         1 VZS      -0.037000
      7 C8           4.0030    26.7970    16.3410 c          1 VZS       0.650100
      8 C10          6.9940    25.3120    15.9600 cd         1 VZS       0.392400
      9 O1           4.6520    27.7720    16.6960 o          1 VZS      -0.580100
     10 N2           5.8710    25.2790    16.7540 na         1 VZS      -0.233300
     11 N4           8.0570    25.0660    16.7190 nc         1 VZS      -0.351500
     12 C9           6.2970    25.0190    18.0350 cd         1 VZS       0.392400
     13 N            2.6890    26.8300    15.9040 ns         1 VZS      -0.144000
     14 C1           0.4630    27.5610    15.2660 ca         1 VZS       0.086100
     15 O            0.1890    26.2310    14.9950 os         1 VZS      -0.372100
     16 C           -1.0930    25.7900    14.5110 c3         1 VZS       0.154900
     17 C3          -0.1860    29.9110    15.3680 ca         1 VZS      -0.096000
     18 C2          -0.5030    28.5740    15.0820 ca         1 VZS      -0.164000
     19 H1           3.9540    24.7350    16.0330 hn         1 VZS       0.333500
     20 H2           2.1000    31.7790    17.0160 hc         1 VZS       0.045033
     21 H3           1.9420    32.1710    15.2950 hc         1 VZS       0.045033
     22 H4           0.5370    32.2910    16.3680 hc         1 VZS       0.045033
     23 H5           3.0390    29.5340    16.3840 ha         1 VZS       0.151000
     24 H6           6.9680    25.5080    14.8960 h5         1 VZS       0.070600
     25 H7           5.6280    24.9450    18.8840 h5         1 VZS       0.070600
     26 H8           2.3100    25.9280    15.6510 hn         1 VZS       0.169000
     27 H9          -1.0910    24.7020    14.3650 h1         1 VZS       0.043367
     28 H10         -1.8870    26.0340    15.2280 h1         1 VZS       0.043367
     29 H11         -1.3310    26.2610    13.5480 h1         1 VZS       0.043367
     30 H12         -0.9380    30.6840    15.2210 ha         1 VZS       0.116000
     31 H13         -1.5010    28.3460    14.7190 ha         1 VZS       0.119000
@<TRIPOS>BOND
     1     1     7 1   
     2     1    10 1   
     3     1    19 1   
     4     2    11 1   
     5     2    12 2   
     6     3     4 1   
     7     3     5 ar  
     8     3    17 ar  
     9     4    20 1   
    10     4    21 1   
    11     4    22 1   
    12     5     6 ar  
    13     5    23 1   
    14     6    13 1   
    15     6    14 ar  
    16     7     9 2   
    17     7    13 1   
    18     8    10 1   
    19     8    11 2   
    20     8    24 1   
    21    10    12 1   
    22    12    25 1   
    23    13    26 1   
    24    14    15 1   
    25    14    18 ar  
    26    15    16 1   
    27    16    27 1   
    28    16    28 1   
    29    16    29 1   
    30    17    18 ar  
    31    17    30 1   
    32    18    31 1   
@<TRIPOS>SUBSTRUCTURE
     1 VZS         1 TEMP              0 ****  ****    0 ROOT
