@<TRIPOS>MOLECULE
VZS
   31    32     1     0     0
SMALL
abcg2


@<TRIPOS>ATOM
      1 N1           4.5650    25.5350    16.0520 ns         1 VZS      -0.411200
      2 N3           7.3170    25.1070    18.1430 nc         1 VZS      -0.351500
      3 C4           1.1520    30.1830    15.8550 ca         1 VZS      -0.076300
      4 C5           1.5410    31.5990    16.1690 c3         1 VZS      -0.044800
      5 C6           2.1140    29.1710    15.9250 ca         1 VZS      -0.106000
      6 C7           1.7930    27.8500    15.6530 ca         1 VZS      -0.037000
      7 C8           3.9590    26.7780    16.1770 c          1 VZS       0.650100
      8 C10          6.9800    25.4160    16.0420 cd         1 VZS       0.392400
      9 O1           4.5550    27.7240    16.6480 o          1 VZS      -0.580100
     10 N2           5.7700    25.3690    16.6490 na         1 VZS      -0.233300
     11 N4           7.9160    25.2560    16.9250 nc         1 VZS      -0.351500
     12 C9           6.0360    25.1830    17.9670 cd         1 VZS       0.392400
     13 N            2.6950    26.7800    15.6930 ns         1 VZS      -0.144000
     14 C1           0.4690    27.5270    15.2890 ca         1 VZS       0.086100
     15 O            0.2410    26.2220    15.0290 os         1 VZS      -0.372100
     16 C           -1.0510    25.8290    14.6100 c3         1 VZS       0.154900
     17 C3          -0.1420    29.8460    15.4990 ca         1 VZS      -0.096000
     18 C2          -0.4850    28.5260    15.2140 ca         1 VZS      -0.164000
     19 H1           4.0270    24.6890    15.9310 hn         1 VZS       0.333500
     20 H2           1.8540    31.7050    17.2090 hc         1 VZS       0.045033
     21 H3           2.3750    31.9320    15.5500 hc         1 VZS       0.045033
     22 H4           0.7110    32.2850    16.0040 hc         1 VZS       0.045033
     23 H5           3.1250    29.4330    16.1950 ha         1 VZS       0.151000
     24 H6           7.1030    25.5600    14.9800 h5         1 VZS       0.070600
     25 H7           5.2700    25.1060    18.7230 h5         1 VZS       0.070600
     26 H8           2.3280    25.9050    15.3480 hn         1 VZS       0.169000
     27 H9          -1.0060    24.7590    14.4310 h1         1 VZS       0.043367
     28 H10         -1.8030    26.0280    15.3780 h1         1 VZS       0.043367
     29 H11         -1.3460    26.3320    13.6870 h1         1 VZS       0.043367
     30 H12         -0.9060    30.6100    15.4380 ha         1 VZS       0.116000
     31 H13         -1.5050    28.2970    14.9380 ha         1 VZS       0.119000
@<TRIPOS>BOND
     1     1     7 1   
     2     1    10 1   
     3     1    19 1   
     4     2    11 1   
     5     2    12 2   
     6     3     4 1   
     7     3     5 ar  
     8     3    17 ar  
     9     4    20 1   
    10     4    21 1   
    11     4    22 1   
    12     5     6 ar  
    13     5    23 1   
    14     6    13 1   
    15     6    14 ar  
    16     7     9 2   
    17     7    13 1   
    18     8    10 1   
    19     8    11 2   
    20     8    24 1   
    21    10    12 1   
    22    12    25 1   
    23    13    26 1   
    24    14    15 1   
    25    14    18 ar  
    26    15    16 1   
    27    16    27 1   
    28    16    28 1   
    29    16    29 1   
    30    17    18 ar  
    31    17    30 1   
    32    18    31 1   
@<TRIPOS>SUBSTRUCTURE
     1 VZS         1 TEMP              0 ****  ****    0 ROOT
