@<TRIPOS>MOLECULE
VZU
   28    28     1     0     0
SMALL
No Charge or Current Charge


@<TRIPOS>ATOM
      1 N1          26.0920    19.2050    -9.7640 nv         1 VZU      -1.075000
      2 C7          25.7140    18.3600   -10.7710 ca         1 VZU       0.290000
      3 C8          26.6590    17.9010   -11.6960 ca         1 VZU      -0.173000
      4 C9          26.2710    17.0360   -12.7350 ca         1 VZU      -0.061500
      5 O1          24.4540    15.3740   -16.2640 o          1 VZU      -0.548000
      6 C1          25.9090    17.6690   -16.8060 c3         1 VZU       0.178600
      7 C5          23.9850    17.1020   -11.9320 ca         1 VZU      -0.061500
      8 C6          24.3760    17.9680   -10.8960 ca         1 VZU      -0.173000
      9 C4          24.9390    16.5740   -12.8310 ca         1 VZU      -0.087000
     10 C3          23.4890    14.7440   -13.7340 c3         1 VZU       0.105300
     11 C2          24.8390    16.0650   -15.3280 c          1 VZU       0.644100
     12 O           25.5850    17.2070   -15.4800 os         1 VZU      -0.455100
     13 C           24.6710    18.3620   -17.4110 c3         1 VZU      -0.121100
     14 N           24.4870    15.8100   -13.9750 n          1 VZU      -0.237400
     15 H1          27.0280    19.6070    -9.7630 hn         1 VZU       0.449000
     16 H2          25.3860    19.6560    -9.1850 hn         1 VZU       0.449000
     17 H3          27.6960    18.2180   -11.6220 ha         1 VZU       0.115000
     18 H4          27.0200    16.6980   -13.4480 ha         1 VZU       0.120000
     19 H5          26.2440    16.8450   -17.4520 h1         1 VZU       0.061200
     20 H6          26.7260    18.4010   -16.7550 h1         1 VZU       0.061200
     21 H7          22.9330    16.8420   -12.0320 ha         1 VZU       0.120000
     22 H8          23.6300    18.3430   -10.2000 ha         1 VZU       0.115000
     23 H9          23.4380    14.5040   -12.6640 h1         1 VZU       0.047367
     24 H10         22.5020    15.0770   -14.0770 h1         1 VZU       0.047367
     25 H11         23.7730    13.8340   -14.2770 h1         1 VZU       0.047367
     26 H12         24.9210    18.7950   -18.3860 hc         1 VZU       0.047033
     27 H13         23.8470    17.6540   -17.5570 hc         1 VZU       0.047033
     28 H14         24.3250    19.1710   -16.7570 hc         1 VZU       0.047033
@<TRIPOS>BOND
     1     1     2 1   
     2     1    15 1   
     3     1    16 1   
     4     2     3 ar  
     5     2     8 ar  
     6     3     4 ar  
     7     3    17 1   
     8     4     9 ar  
     9     4    18 1   
    10     5    11 2   
    11     6    12 1   
    12     6    13 1   
    13     6    19 1   
    14     6    20 1   
    15     7     8 ar  
    16     7     9 ar  
    17     7    21 1   
    18     8    22 1   
    19     9    14 1   
    20    10    14 1   
    21    10    23 1   
    22    10    24 1   
    23    10    25 1   
    24    11    12 1   
    25    11    14 1   
    26    13    26 1   
    27    13    27 1   
    28    13    28 1   
@<TRIPOS>SUBSTRUCTURE
     1 VZU         1 TEMP              0 ****  ****    0 ROOT
