@<TRIPOS>MOLECULE
VZU
   28    28     1     0     0
SMALL
abcg2


@<TRIPOS>ATOM
      1 N1          25.9560    19.1720    -9.7460 nv         1 VZU      -1.075000
      2 C7          25.6480    18.3630   -10.8310 ca         1 VZU       0.290000
      3 C8          26.5690    17.4180   -11.3060 ca         1 VZU      -0.173000
      4 C9          26.2360    16.5710   -12.3530 ca         1 VZU      -0.061500
      5 O1          24.4860    15.3790   -16.2720 o          1 VZU      -0.548000
      6 C1          25.6220    17.7750   -16.8030 c3         1 VZU       0.178600
      7 C5          24.0620    17.5780   -12.4850 ca         1 VZU      -0.061500
      8 C6          24.3860    18.4280   -11.4390 ca         1 VZU      -0.173000
      9 C4          24.9840    16.6480   -12.9540 ca         1 VZU      -0.087000
     10 C3          23.9790    14.5060   -13.6610 c3         1 VZU       0.105300
     11 C2          24.8240    16.0770   -15.3250 c          1 VZU       0.644100
     12 O           25.4520    17.2650   -15.4610 os         1 VZU      -0.455100
     13 C           24.4010    18.5520   -17.2520 c3         1 VZU      -0.121100
     14 N           24.6340    15.7580   -14.0210 n          1 VZU      -0.237400
     15 H1          26.9410    19.3220    -9.5820 hn         1 VZU       0.449000
     16 H2          25.4230    20.0270    -9.6760 hn         1 VZU       0.449000
     17 H3          27.5500    17.3560   -10.8490 ha         1 VZU       0.115000
     18 H4          26.9560    15.8480   -12.7150 ha         1 VZU       0.120000
     19 H5          25.8410    16.9470   -17.4740 h1         1 VZU       0.061200
     20 H6          26.4970    18.4200   -16.7350 h1         1 VZU       0.061200
     21 H7          23.0860    17.6400   -12.9520 ha         1 VZU       0.120000
     22 H8          23.6620    19.1530   -11.0860 ha         1 VZU       0.115000
     23 H9          24.5970    13.9610   -12.9450 h1         1 VZU       0.047367
     24 H10         23.0050    14.7010   -13.2060 h1         1 VZU       0.047367
     25 H11         23.8440    13.9040   -14.5540 h1         1 VZU       0.047367
     26 H12         24.5830    18.9770   -18.2410 hc         1 VZU       0.047033
     27 H13         23.5260    17.9050   -17.3120 hc         1 VZU       0.047033
     28 H14         24.1890    19.3690   -16.5600 hc         1 VZU       0.047033
@<TRIPOS>BOND
     1     1     2 1   
     2     1    15 1   
     3     1    16 1   
     4     2     3 ar  
     5     2     8 ar  
     6     3     4 ar  
     7     3    17 1   
     8     4     9 ar  
     9     4    18 1   
    10     5    11 2   
    11     6    12 1   
    12     6    13 1   
    13     6    19 1   
    14     6    20 1   
    15     7     8 ar  
    16     7     9 ar  
    17     7    21 1   
    18     8    22 1   
    19     9    14 1   
    20    10    14 1   
    21    10    23 1   
    22    10    24 1   
    23    10    25 1   
    24    11    12 1   
    25    11    14 1   
    26    13    26 1   
    27    13    27 1   
    28    13    28 1   
@<TRIPOS>SUBSTRUCTURE
     1 VZU         1 TEMP              0 ****  ****    0 ROOT
