@<TRIPOS>MOLECULE
VZW
   58    62     1     0     0
SMALL
No Charge or Current Charge


@<TRIPOS>ATOM
      1 O2           1.1430    16.2510    16.1290 o          1 VZW      -0.710000
      2 C11         -2.1130     6.1500    14.5550 c6         1 VZW       0.085500
      3 C19         -2.1250     6.7520    12.1570 c6         1 VZW       0.085500
      4 C21          0.2500     9.8250    14.9930 ca         1 VZW       0.081000
      5 C20         -2.1260     8.2610    12.5200 c6         1 VZW       0.164800
      6 C23          0.2350    12.2550    14.7930 ca         1 VZW      -0.207600
      7 C18         -3.6250     3.3800    14.5950 ca         1 VZW      -0.102500
      8 C22          0.8130    11.0700    15.2980 ca         1 VZW      -0.054000
      9 C17         -4.0840     2.3640    15.4510 ca         1 VZW      -0.016000
     10 C16         -5.4550     2.2640    15.7580 ca         1 VZW      -0.259500
     11 C10         -2.0920     7.6570    14.9360 c6         1 VZW       0.164800
     12 C13         -4.5240     4.3210    14.0410 ca         1 VZW      -0.081600
     13 C14         -5.9000     4.1930    14.3330 ca         1 VZW      -0.102500
     14 N3          -6.3650    -0.2640    15.8280 n8         1 VZW      -1.006100
     15 C15         -6.3630     3.1790    15.1900 ca         1 VZW      -0.016000
     16 N2          -2.7420     5.9090    13.2210 n          1 VZW      -0.392800
     17 C2           0.2100    16.0730    15.3630 c          1 VZW       0.728200
     18 O1          -0.5190    16.9980    15.0350 o          1 VZW      -0.710000
     19 C1          -0.0940    14.7180    14.8290 cc         1 VZW      -0.293400
     20 N1          -1.5020     8.4990    13.8550 nh         1 VZW      -0.770400
     21 C3          -1.2030    14.5930    13.9980 cd         1 VZW       0.015000
     22 C4          -2.3920    13.3630    12.2570 cx         1 VZW       0.164500
     23 C5          -2.2900    14.2630    11.0490 cx         1 VZW      -0.136400
     24 C7          -0.8900    12.1960    13.9690 ca         1 VZW       0.336000
     25 C9          -0.9040     9.7460    14.1780 ca         1 VZW       0.256000
     26 C8          -1.4570    10.9380    13.6770 ca         1 VZW      -0.212000
     27 C6          -2.1250    12.7730    10.8930 cx         1 VZW      -0.136400
     28 N           -1.4380    13.3470    13.3790 na         1 VZW      -0.631200
     29 C            0.7860    13.5820    15.1500 c          1 VZW       0.592900
     30 O            1.8780    13.6580    15.7040 o          1 VZW      -0.540100
     31 O5          -4.7830     5.7910    12.1800 o          1 VZW      -0.591100
     32 O4          -7.3550     1.3000    17.4040 o          1 VZW      -0.544000
     33 O3          -4.9590     0.4450    17.6800 o          1 VZW      -0.544000
     34 H2          -2.6430     5.6100    15.3500 h1         1 VZW       0.066950
     35 H3          -1.0810     5.7720    14.5340 h1         1 VZW       0.066950
     36 H4          -2.6390     6.6060    11.1970 h1         1 VZW       0.066950
     37 H5          -1.0850     6.4260    12.0120 h1         1 VZW       0.066950
     38 H6          -1.5790     8.8100    11.7390 h1         1 VZW       0.049950
     39 H7          -3.1630     8.6280    12.5180 h1         1 VZW       0.049950
     40 H8          -2.5660     3.4190    14.3500 ha         1 VZW       0.130000
     41 H9           1.6930    11.1090    15.9370 ha         1 VZW       0.152000
     42 H10         -3.3710     1.6530    15.8660 ha         1 VZW       0.137500
     43 H11         -1.5290     7.7730    15.8740 h1         1 VZW       0.049950
     44 H12         -3.1220     7.9850    15.1360 h1         1 VZW       0.049950
     45 H13         -6.6150     4.8890    13.9020 ha         1 VZW       0.130000
     46 H14         -5.8400    -1.0130    16.2720 hn         1 VZW       0.473000
     47 H15         -7.3210    -0.4830    16.1000 hn         1 VZW       0.473000
     48 H16         -7.4280     3.1080    15.4050 ha         1 VZW       0.137500
     49 H17         -1.8430    15.4300    13.7110 h4         1 VZW       0.227000
     50 H18         -3.3870    13.2090    12.6790 h1         1 VZW       0.080700
     51 H19         -1.4020    14.8820    10.9510 hc         1 VZW       0.079700
     52 H20         -3.2080    14.7160    10.6820 hc         1 VZW       0.079700
     53 H21         -2.3440    10.8810    13.0580 ha         1 VZW       0.113000
     54 H22         -2.9310    12.2150    10.4220 hc         1 VZW       0.079700
     55 H23         -1.1270    12.3900    10.6970 hc         1 VZW       0.079700
     56 C12         -4.0590     5.4120    13.0940 c          1 VZW       0.605700
     57 F            0.8380     8.7060    15.4850 f          1 VZW      -0.193000
     58 S           -6.0450     0.9650    16.8520 sy         1 VZW       1.125600
@<TRIPOS>BOND
     1     1    17 1   
     2     2    11 1   
     3     2    16 1   
     4     2    34 1   
     5     2    35 1   
     6     3     5 1   
     7     3    16 1   
     8     3    36 1   
     9     3    37 1   
    10     4     8 ar  
    11     4    25 ar  
    12     4    57 1   
    13     5    20 1   
    14     5    38 1   
    15     5    39 1   
    16     6     8 ar  
    17     6    24 ar  
    18     6    29 1   
    19     7     9 ar  
    20     7    12 ar  
    21     7    40 1   
    22     8    41 1   
    23     9    10 ar  
    24     9    42 1   
    25    10    15 ar  
    26    10    58 1   
    27    11    20 1   
    28    11    43 1   
    29    11    44 1   
    30    12    13 ar  
    31    12    56 1   
    32    13    15 ar  
    33    13    45 1   
    34    14    46 1   
    35    14    47 1   
    36    14    58 1   
    37    15    48 1   
    38    16    56 1   
    39    17    18 1   
    40    17    19 1   
    41    19    21 2   
    42    19    29 1   
    43    20    25 1   
    44    21    28 1   
    45    21    49 1   
    46    22    23 1   
    47    22    27 1   
    48    22    28 1   
    49    22    50 1   
    50    23    27 1   
    51    23    51 1   
    52    23    52 1   
    53    24    26 ar  
    54    24    28 1   
    55    25    26 ar  
    56    26    53 1   
    57    27    54 1   
    58    27    55 1   
    59    29    30 2   
    60    31    56 2   
    61    32    58 2   
    62    33    58 2   
@<TRIPOS>SUBSTRUCTURE
     1 VZW         1 TEMP              0 ****  ****    0 ROOT
