@<TRIPOS>MOLECULE
VZW
   58    62     1     0     0
SMALL
abcg2


@<TRIPOS>ATOM
      1 O2           0.4350    16.1840    16.3490 o          1 VZW      -0.710000
      2 C11         -1.6060     5.8520    14.0990 c6         1 VZW       0.085500
      3 C19         -1.7080     6.6100    11.8170 c6         1 VZW       0.085500
      4 C21          0.2400     9.6640    14.9570 ca         1 VZW       0.081000
      5 C20         -1.7510     8.0560    12.2880 c6         1 VZW       0.164800
      6 C23         -0.1420    12.0310    15.0200 ca         1 VZW      -0.207600
      7 C18         -3.5970     3.1980    14.1200 ca         1 VZW      -0.102500
      8 C22          0.5380    10.8910    15.4690 ca         1 VZW      -0.054000
      9 C17         -4.1790     2.4470    15.1260 ca         1 VZW      -0.016000
     10 C16         -5.2670     2.9660    15.8160 ca         1 VZW      -0.259500
     11 C10         -1.6340     7.2930    14.5730 c6         1 VZW       0.164800
     12 C13         -4.1070     4.4540    13.8000 ca         1 VZW      -0.081600
     13 C14         -5.2120     4.9480    14.4810 ca         1 VZW      -0.102500
     14 N3          -6.8070     0.8730    16.2950 n8         1 VZW      -1.006100
     15 C15         -5.7890     4.2120    15.5060 ca         1 VZW      -0.016000
     16 N2          -2.2880     5.7370    12.8220 n          1 VZW      -0.392800
     17 C2          -0.4920    15.8970    15.5750 c          1 VZW       0.728200
     18 O1          -1.3530    16.6840    15.1240 o          1 VZW      -0.710000
     19 C1          -0.6060    14.4470    15.1030 cc         1 VZW      -0.293400
     20 N1          -1.0610     8.1770    13.5600 nh         1 VZW      -0.770400
     21 C3          -1.5210    14.1940    14.1240 cd         1 VZW       0.015000
     22 C4          -2.7690    12.8750    12.5310 cx         1 VZW       0.164500
     23 C5          -2.8300    13.8910    11.4400 cx         1 VZW      -0.136400
     24 C7          -1.1100    11.8740    14.0230 ca         1 VZW       0.336000
     25 C9          -0.7770     9.4690    14.0040 ca         1 VZW       0.256000
     26 C8          -1.4310    10.5970    13.5400 ca         1 VZW      -0.212000
     27 C6          -2.3480    12.5080    11.1430 cx         1 VZW      -0.136400
     28 N           -1.7660    12.9960    13.5560 na         1 VZW      -0.631200
     29 C            0.1830    13.3440    15.6140 c          1 VZW       0.592900
     30 O            1.0490    13.4120    16.4840 o          1 VZW      -0.540100
     31 O5          -4.2100     5.4210    11.6610 o          1 VZW      -0.591100
     32 O4          -6.8230     2.8920    17.9220 o          1 VZW      -0.544000
     33 O3          -4.8960     1.3020    17.8250 o          1 VZW      -0.544000
     34 H2          -2.0710     5.2180    14.8500 h1         1 VZW       0.066950
     35 H3          -0.5730     5.5160    13.9770 h1         1 VZW       0.066950
     36 H4          -2.2440     6.5070    10.8780 h1         1 VZW       0.066950
     37 H5          -0.6710     6.3040    11.6530 h1         1 VZW       0.066950
     38 H6          -1.2540     8.6850    11.5480 h1         1 VZW       0.049950
     39 H7          -2.8010     8.3780    12.3500 h1         1 VZW       0.049950
     40 H8          -2.7380     2.8060    13.5890 ha         1 VZW       0.130000
     41 H9           1.3180    10.9930    16.2120 ha         1 VZW       0.152000
     42 H10         -3.7770     1.4720    15.3670 ha         1 VZW       0.137500
     43 H11         -1.0760     7.3620    15.5050 h1         1 VZW       0.049950
     44 H12         -2.6740     7.5790    14.7910 h1         1 VZW       0.049950
     45 H13         -5.6190     5.9190    14.2320 ha         1 VZW       0.130000
     46 H14         -6.9980     0.0510    16.8610 hn         1 VZW       0.473000
     47 H15         -7.6670     1.2340    15.8930 hn         1 VZW       0.473000
     48 H16         -6.6340     4.6130    16.0480 ha         1 VZW       0.137500
     49 H17         -2.1170    15.0110    13.7430 h4         1 VZW       0.227000
     50 H18         -3.7120    12.4730    12.8880 h1         1 VZW       0.080700
     51 H19         -2.0990    14.6900    11.4290 hc         1 VZW       0.079700
     52 H20         -3.8140    14.1860    11.1030 hc         1 VZW       0.079700
     53 H21         -2.2170    10.4840    12.8090 ha         1 VZW       0.113000
     54 H22         -2.9860    11.8320    10.5900 hc         1 VZW       0.079700
     55 H23         -1.2880    12.3780    10.9650 hc         1 VZW       0.079700
     56 C12         -3.5380     5.2550    12.6660 c          1 VZW       0.605700
     57 F            0.9430     8.5920    15.3640 f          1 VZW      -0.193000
     58 S           -5.9640     2.0150    17.1410 sy         1 VZW       1.125600
@<TRIPOS>BOND
     1     1    17 1   
     2     2    11 1   
     3     2    16 1   
     4     2    34 1   
     5     2    35 1   
     6     3     5 1   
     7     3    16 1   
     8     3    36 1   
     9     3    37 1   
    10     4     8 ar  
    11     4    25 ar  
    12     4    57 1   
    13     5    20 1   
    14     5    38 1   
    15     5    39 1   
    16     6     8 ar  
    17     6    24 ar  
    18     6    29 1   
    19     7     9 ar  
    20     7    12 ar  
    21     7    40 1   
    22     8    41 1   
    23     9    10 ar  
    24     9    42 1   
    25    10    15 ar  
    26    10    58 1   
    27    11    20 1   
    28    11    43 1   
    29    11    44 1   
    30    12    13 ar  
    31    12    56 1   
    32    13    15 ar  
    33    13    45 1   
    34    14    46 1   
    35    14    47 1   
    36    14    58 1   
    37    15    48 1   
    38    16    56 1   
    39    17    18 1   
    40    17    19 1   
    41    19    21 2   
    42    19    29 1   
    43    20    25 1   
    44    21    28 1   
    45    21    49 1   
    46    22    23 1   
    47    22    27 1   
    48    22    28 1   
    49    22    50 1   
    50    23    27 1   
    51    23    51 1   
    52    23    52 1   
    53    24    26 ar  
    54    24    28 1   
    55    25    26 ar  
    56    26    53 1   
    57    27    54 1   
    58    27    55 1   
    59    29    30 2   
    60    31    56 2   
    61    32    58 2   
    62    33    58 2   
@<TRIPOS>SUBSTRUCTURE
     1 VZW         1 TEMP              0 ****  ****    0 ROOT
