@<TRIPOS>MOLECULE
VZY
   24    24     1     0     0
SMALL
bcc


@<TRIPOS>ATOM
      1 C4           0.7700    10.9200    -8.8320 ca         1 VZY      -0.090000
      2 C5           0.5590    10.7380    -7.4680 ca         1 VZY      -0.124600
      3 C6          -0.3560     9.7760    -7.0440 ca         1 VZY      -0.099000
      4 C7           1.3550    11.5690    -6.5080 c          1 VZY       0.657700
      5 C8           1.4130    12.5290    -4.2500 c3         1 VZY      -0.061000
      6 O1           0.9440    13.1860    -2.0330 o          1 VZY      -0.833800
      7 C9           0.4820    12.5850    -3.0170 c          1 VZY       0.924600
      8 O2          -0.6290    12.0310    -3.1280 o          1 VZY      -0.833800
      9 N            0.7910    11.7940    -5.3190 ns         1 VZY      -0.523900
     10 O            2.4550    12.0130    -6.8240 o          1 VZY      -0.655100
     11 C3           0.0540    10.1660    -9.7490 ca         1 VZY      -0.150000
     12 C2          -0.8570     9.2140    -9.3140 ca         1 VZY      -0.129000
     13 C1          -1.0680     8.9990    -7.9540 ca         1 VZY      -0.094300
     14 C           -2.0170     7.9350    -7.4820 c3         1 VZY      -0.041800
     15 H1           1.4830    11.6580    -9.1750 ha         1 VZY       0.147000
     16 H2          -0.5100     9.5960    -5.9860 ha         1 VZY       0.147000
     17 H3           2.3620    12.0670    -3.9610 h1         1 VZY       0.036200
     18 H4           1.6510    13.5510    -4.5630 h1         1 VZY       0.036200
     19 H6          -0.1440    11.4780    -5.1050 hn         1 VZY       0.343500
     20 H7           0.2060    10.3220   -10.8090 ha         1 VZY       0.118000
     21 H8          -1.4080     8.6270   -10.0390 ha         1 VZY       0.114000
     22 H9          -1.5190     6.9640    -7.4330 hc         1 VZY       0.037033
     23 H10         -2.4020     8.1520    -6.4860 hc         1 VZY       0.037033
     24 H11         -2.8640     7.8290    -8.1590 hc         1 VZY       0.037033
@<TRIPOS>BOND
     1     1     2 ar  
     2     1    11 ar  
     3     1    15 1   
     4     2     3 ar  
     5     2     4 1   
     6     3    13 ar  
     7     3    16 1   
     8     4     9 1   
     9     4    10 2   
    10     5     7 1   
    11     5     9 1   
    12     5    17 1   
    13     5    18 1   
    14     6     7 1   
    15     7     8 1   
    16     9    19 1   
    17    11    12 ar  
    18    11    20 1   
    19    12    13 ar  
    20    12    21 1   
    21    13    14 1   
    22    14    22 1   
    23    14    23 1   
    24    14    24 1   
@<TRIPOS>SUBSTRUCTURE
     1 VZY         1 TEMP              0 ****  ****    0 ROOT
