@<TRIPOS>MOLECULE
VZY
   24    24     1     0     0
SMALL
No Charge or Current Charge


@<TRIPOS>ATOM
      1 C4           0.8570    10.8320    -8.9100 ca         1 VZY      -0.072000
      2 C5           0.5140    10.8290    -7.5380 ca         1 VZY      -0.124600
      3 C6          -0.4840     9.9230    -7.0950 ca         1 VZY      -0.081000
      4 C7           1.2180    11.7860    -6.5930 c          1 VZY       0.590700
      5 C8           1.4150    12.5790    -4.1880 c3         1 VZY      -0.061000
      6 O1           0.7830    13.2610    -1.9910 o          1 VZY      -0.728500
      7 C9           0.6850    12.3780    -2.8300 c          1 VZY       0.714000
      8 O2           0.0160    11.3650    -2.6680 o          1 VZY      -0.728500
      9 N            0.8450    11.7380    -5.2670 ns         1 VZY      -0.456900
     10 O            2.0790    12.5690    -6.9770 o          1 VZY      -0.655100
     11 C3           0.2250     9.9590    -9.8100 ca         1 VZY      -0.132000
     12 C2          -0.7590     9.0690    -9.3570 ca         1 VZY      -0.111000
     13 C1          -1.1190     9.0490    -7.9990 ca         1 VZY      -0.094300
     14 C           -2.1840     8.0820    -7.5020 c3         1 VZY      -0.041800
     15 H1           1.6180    11.5150    -9.2830 ha         1 VZY       0.129000
     16 H2          -0.7790     9.8830    -6.0500 ha         1 VZY       0.129000
     17 H3           2.4740    12.3240    -4.0540 h1         1 VZY       0.036200
     18 H4           1.3370    13.6350    -4.4760 h1         1 VZY       0.036200
     19 H6           0.1340    11.0640    -5.0100 hn         1 VZY       0.343500
     20 H7           0.5010     9.9730   -10.8620 ha         1 VZY       0.100000
     21 H8          -1.2410     8.3950   -10.0620 ha         1 VZY       0.096000
     22 H9          -1.7260     7.1910    -7.0580 hc         1 VZY       0.037033
     23 H10         -2.8190     8.5480    -6.7390 hc         1 VZY       0.037033
     24 H11         -2.8400     7.7510    -8.3170 hc         1 VZY       0.037033
@<TRIPOS>BOND
     1     1     2 ar  
     2     1    11 ar  
     3     1    15 1   
     4     2     3 ar  
     5     2     4 1   
     6     3    13 ar  
     7     3    16 1   
     8     4     9 1   
     9     4    10 2   
    10     5     7 1   
    11     5     9 1   
    12     5    17 1   
    13     5    18 1   
    14     6     7 1   
    15     7     8 1   
    16     9    19 1   
    17    11    12 ar  
    18    11    20 1   
    19    12    13 ar  
    20    12    21 1   
    21    13    14 1   
    22    14    22 1   
    23    14    23 1   
    24    14    24 1   
@<TRIPOS>SUBSTRUCTURE
     1 VZY         1 TEMP              0 ****  ****    0 ROOT
