@<TRIPOS>MOLECULE
VZZ
   38    37     1     0     0
SMALL
No Charge or Current Charge


@<TRIPOS>ATOM
      1 O3           8.7480    -0.4650     1.0560 o          1 VZZ      -0.743500
      2 C12          8.2840    -0.0940    -0.0110 c          1 VZZ       0.716000
      3 O4           8.7500    -0.4070    -1.0960 o          1 VZZ      -0.743500
      4 C11          7.0070     0.7670     0.0120 c3         1 VZZ      -0.203400
      5 C10          5.7510    -0.1380    -0.0130 c3         1 VZZ      -0.054400
      6 C9           4.4270     0.6590     0.0080 c3         1 VZZ      -0.079400
      7 C8           3.1760    -0.2470    -0.0180 c3         1 VZZ      -0.075400
      8 C7           1.8530     0.5500     0.0040 c3         1 VZZ      -0.075400
      9 C6           0.6020    -0.3560    -0.0210 c3         1 VZZ      -0.075400
     10 C5          -0.7210     0.4410     0.0000 c3         1 VZZ      -0.074400
     11 C4          -1.9720    -0.4650    -0.0250 c3         1 VZZ      -0.075400
     12 C3          -3.2950     0.3320    -0.0030 c3         1 VZZ      -0.084400
     13 C2          -4.5420    -0.5730    -0.0280 c3         1 VZZ       0.160600
     14 O2          -5.6980     0.2810    -0.0050 os         1 VZZ      -0.423100
     15 C1          -6.9310    -0.3110    -0.0210 c          1 VZZ       0.644700
     16 O1          -7.1370    -1.5150    -0.0540 o          1 VZZ      -0.476000
     17 S1          -8.2470     0.9150     0.0130 sh         1 VZZ      -0.294400
     18 H111         6.9460     1.3390     0.9470 hc         1 VZZ       0.014200
     19 H112         6.9470     1.3890    -0.8900 hc         1 VZZ       0.014200
     20 H101         5.7780    -0.7670    -0.9120 hc         1 VZZ       0.037700
     21 H102         5.7770    -0.8150     0.8500 hc         1 VZZ       0.037700
     22 H91          4.3980     1.2860     0.9070 hc         1 VZZ       0.023700
     23 H92          4.3990     1.3340    -0.8560 hc         1 VZZ       0.023700
     24 H81          3.2040    -0.8740    -0.9170 hc         1 VZZ       0.034200
     25 H82          3.2030    -0.9230     0.8460 hc         1 VZZ       0.034200
     26 H71          1.8250     1.1770     0.9030 hc         1 VZZ       0.032700
     27 H72          1.8250     1.2260    -0.8600 hc         1 VZZ       0.032700
     28 H61          0.6300    -0.9840    -0.9210 hc         1 VZZ       0.035700
     29 H62          0.6290    -1.0320     0.8420 hc         1 VZZ       0.035700
     30 H51         -0.7490     1.0690     0.8990 hc         1 VZZ       0.037700
     31 H52         -0.7480     1.1170    -0.8640 hc         1 VZZ       0.037700
     32 H41         -1.9440    -1.0930    -0.9240 hc         1 VZZ       0.039700
     33 H42         -1.9440    -1.1410     0.8390 hc         1 VZZ       0.039700
     34 H31         -3.3270     0.9580     0.8970 hc         1 VZZ       0.055700
     35 H32         -3.3260     1.0060    -0.8680 hc         1 VZZ       0.055700
     36 H21         -4.5310    -1.1900    -0.9370 h1         1 VZZ       0.051700
     37 H22         -4.5310    -1.2390     0.8460 h1         1 VZZ       0.051700
     38 HS1         -9.2000    -0.0420    -0.0140 hs         1 VZZ       0.226800
@<TRIPOS>BOND
     1     1     2 1   
     2     2     3 1   
     3     2     4 1   
     4     4     5 1   
     5     4    18 1   
     6     4    19 1   
     7     5     6 1   
     8     5    20 1   
     9     5    21 1   
    10     6     7 1   
    11     6    22 1   
    12     6    23 1   
    13     7     8 1   
    14     7    24 1   
    15     7    25 1   
    16     8     9 1   
    17     8    26 1   
    18     8    27 1   
    19     9    10 1   
    20     9    28 1   
    21     9    29 1   
    22    10    11 1   
    23    10    30 1   
    24    10    31 1   
    25    11    12 1   
    26    11    32 1   
    27    11    33 1   
    28    12    13 1   
    29    12    34 1   
    30    12    35 1   
    31    13    14 1   
    32    13    36 1   
    33    13    37 1   
    34    14    15 1   
    35    15    16 2   
    36    15    17 1   
    37    17    38 1   
@<TRIPOS>SUBSTRUCTURE
     1 VZZ         1 TEMP              0 ****  ****    0 ROOT
