@<TRIPOS>MOLECULE
VZZ
   38    37     1     0     0
SMALL
bcc


@<TRIPOS>ATOM
      1 O3           8.2600    -1.2430     0.2600 o          1 VZZ      -0.848800
      2 C12          8.2600    -0.0170     0.0310 c          1 VZZ       0.926600
      3 O4           9.2700     0.6990    -0.1420 o          1 VZZ      -0.848800
      4 C11          6.9020     0.7040    -0.0410 c3         1 VZZ      -0.203400
      5 C10          5.6690    -0.1820     0.0250 c3         1 VZZ      -0.054400
      6 C9           4.3680     0.6080    -0.0530 c3         1 VZZ      -0.079400
      7 C8           3.1260    -0.2730     0.0080 c3         1 VZZ      -0.075400
      8 C7           1.8230     0.5150    -0.0610 c3         1 VZZ      -0.075400
      9 C6           0.5820    -0.3670    -0.0060 c3         1 VZZ      -0.075400
     10 C5          -0.7190     0.4230    -0.0610 c3         1 VZZ      -0.074400
     11 C4          -1.9580    -0.4610    -0.0100 c3         1 VZZ      -0.075400
     12 C3          -3.2520     0.3430    -0.0500 c3         1 VZZ      -0.084400
     13 C2          -4.4590    -0.5660     0.0030 c3         1 VZZ       0.137400
     14 O2          -5.6380     0.2650    -0.0270 os         1 VZZ      -0.399900
     15 C1          -6.8120    -0.3270     0.0430 c          1 VZZ       0.693700
     16 O1          -7.0140    -1.5060     0.1200 o          1 VZZ      -0.525000
     17 S1          -8.0570     0.9350     0.0020 sh         1 VZZ      -0.294400
     18 H111         6.8680     1.4380     0.7730 hc         1 VZZ       0.014200
     19 H112         6.8780     1.3030    -0.9590 hc         1 VZZ       0.014200
     20 H101         5.6940    -0.9140    -0.7880 hc         1 VZZ       0.037700
     21 H102         5.6810    -0.7640     0.9520 hc         1 VZZ       0.037700
     22 H91          4.3340     1.3380     0.7640 hc         1 VZZ       0.023700
     23 H92          4.3500     1.1940    -0.9790 hc         1 VZZ       0.023700
     24 H81          3.1550    -0.9980    -0.8130 hc         1 VZZ       0.034200
     25 H82          3.1440    -0.8620     0.9320 hc         1 VZZ       0.034200
     26 H71          1.7920     1.2360     0.7630 hc         1 VZZ       0.032700
     27 H72          1.8060     1.1080    -0.9830 hc         1 VZZ       0.032700
     28 H61          0.6090    -1.0830    -0.8350 hc         1 VZZ       0.035700
     29 H62          0.6030    -0.9670     0.9120 hc         1 VZZ       0.035700
     30 H51         -0.7470     1.1340     0.7720 hc         1 VZZ       0.037700
     31 H52         -0.7400     1.0260    -0.9760 hc         1 VZZ       0.037700
     32 H41         -1.9360    -1.1650    -0.8490 hc         1 VZZ       0.039700
     33 H42         -1.9320    -1.0700     0.9000 hc         1 VZZ       0.039700
     34 H31         -3.2790     1.0370     0.7960 hc         1 VZZ       0.055700
     35 H32         -3.2830     0.9460    -0.9620 hc         1 VZZ       0.055700
     36 H21         -4.4740    -1.2470    -0.8520 h1         1 VZZ       0.051700
     37 H22         -4.4590    -1.1630     0.9170 h1         1 VZZ       0.051700
     38 HS1         -9.0980     0.1010     0.0840 hs         1 VZZ       0.226800
@<TRIPOS>BOND
     1     1     2 1   
     2     2     3 1   
     3     2     4 1   
     4     4     5 1   
     5     4    18 1   
     6     4    19 1   
     7     5     6 1   
     8     5    20 1   
     9     5    21 1   
    10     6     7 1   
    11     6    22 1   
    12     6    23 1   
    13     7     8 1   
    14     7    24 1   
    15     7    25 1   
    16     8     9 1   
    17     8    26 1   
    18     8    27 1   
    19     9    10 1   
    20     9    28 1   
    21     9    29 1   
    22    10    11 1   
    23    10    30 1   
    24    10    31 1   
    25    11    12 1   
    26    11    32 1   
    27    11    33 1   
    28    12    13 1   
    29    12    34 1   
    30    12    35 1   
    31    13    14 1   
    32    13    36 1   
    33    13    37 1   
    34    14    15 1   
    35    15    16 2   
    36    15    17 1   
    37    17    38 1   
@<TRIPOS>SUBSTRUCTURE
     1 VZZ         1 TEMP              0 ****  ****    0 ROOT
