@<TRIPOS>MOLECULE
000
    8     7     1     0     0
SMALL
No Charge or Current Charge


@<TRIPOS>ATOM
      1 C           -0.5150     0.0880     0.0010 c          1 000       0.819100
      2 O           -0.4370     1.3050     0.0210 o          1 000      -0.729000
      3 OA           0.6180    -0.6720    -0.0160 os         1 000      -0.542100
      4 CB           1.8990    -0.0160    -0.0100 c3         1 000       0.200900
      5 OXT         -1.5740    -0.5130    -0.0050 o          1 000      -0.729000
      6 HB           2.0140     0.6260    -0.8930 h1         1 000      -0.006633
      7 HBA          2.0210     0.5960     0.8930 h1         1 000      -0.006633
      8 HBB          2.7040    -0.7620    -0.0260 h1         1 000      -0.006633
@<TRIPOS>BOND
     1     1     2 1   
     2     1     3 1   
     3     1     5 1   
     4     3     4 1   
     5     4     6 1   
     6     4     7 1   
     7     4     8 1   
@<TRIPOS>SUBSTRUCTURE
     1 000         1 TEMP              0 ****  ****    0 ROOT
