@<TRIPOS>MOLECULE
000
    8     7     1     0     0
SMALL
abcg2


@<TRIPOS>ATOM
      1 C           -0.5160     0.1030     0.0010 c          1 000       0.819100
      2 O           -0.3750     1.3330     0.0180 o          1 000      -0.729000
      3 OA           0.6310    -0.6760    -0.0190 os         1 000      -0.542100
      4 CB           1.8700    -0.0060    -0.0100 c3         1 000       0.200900
      5 OXT         -1.5530    -0.5720    -0.0020 o          1 000      -0.729000
      6 HB           2.0110     0.6380    -0.8820 h1         1 000      -0.006633
      7 HBA          2.0160     0.6050     0.8850 h1         1 000      -0.006633
      8 HBB          2.6440    -0.7740    -0.0260 h1         1 000      -0.006633
@<TRIPOS>BOND
     1     1     2 1   
     2     1     3 1   
     3     1     5 1   
     4     3     4 1   
     5     4     6 1   
     6     4     7 1   
     7     4     8 1   
@<TRIPOS>SUBSTRUCTURE
     1 000         1 TEMP              0 ****  ****    0 ROOT
