@<TRIPOS>MOLECULE
001
   87    90     1     0     0
SMALL
No Charge or Current Charge


@<TRIPOS>ATOM
      1 C01          1.4780    -0.0530    -3.3460 ca         1 001      -0.098300
      2 C02          1.5680     0.9770    -2.3940 ca         1 001      -0.192500
      3 C03          2.8190     1.5180    -2.0260 ca         1 001       0.151600
      4 C04          4.0120     1.0380    -2.6170 ca         1 001       0.042100
      5 C05          3.9300     0.0010    -3.5980 ca         1 001       0.151600
      6 C06          2.6630    -0.5240    -3.9490 ca         1 001      -0.192500
      7 O03          2.9150     2.5340    -1.0870 os         1 001      -0.323600
      8 C07          1.7730     3.0460    -0.3800 c3         1 001       0.142900
      9 O04          5.2000     1.6350    -2.1860 os         1 001      -0.330100
     10 C08          6.5200     1.2750    -2.6380 c3         1 001       0.148900
     11 O05          5.0770    -0.4860    -4.2070 os         1 001      -0.323600
     12 C09          5.0660    -1.5180    -5.2100 c3         1 001       0.142900
     13 C10          0.0950    -0.6240    -3.7300 c3         1 001       0.169300
     14 F10         -0.5500     0.2850    -4.5040 f          1 001      -0.099000
     15 F11          0.1970    -1.7350    -4.5010 f          1 001      -0.099000
     16 C11         -0.7750    -0.9590    -2.4670 c          1 001       0.556100
     17 O11         -1.9340    -0.5600    -2.3810 o          1 001      -0.547100
     18 N12         -0.2060    -1.7220    -1.4030 n          1 001      -0.379800
     19 C12          0.7540    -2.8220    -1.7520 c6         1 001       0.101000
     20 C13          1.3640    -3.6070    -0.5790 c6         1 001      -0.088400
     21 C14          0.2630    -4.0630     0.3810 c6         1 001      -0.075400
     22 C15         -0.3810    -2.8120     0.9870 c6         1 001      -0.084400
     23 C16         -0.9490    -1.8110    -0.0740 c6         1 001       0.045700
     24 C17         -1.2080    -0.4350     0.6320 c          1 001       0.614100
     25 O17         -1.0490     0.6510     0.0880 o          1 001      -0.495000
     26 O18         -1.7770    -0.5710     1.8780 os         1 001      -0.447100
     27 C18         -2.0150     0.5950     2.6940 c3         1 001       0.182300
     28 C19         -0.7850     0.8100     3.6170 c3         1 001      -0.095400
     29 C20          0.5230     1.1830     2.8810 c3         1 001      -0.073400
     30 C21          1.7180     1.4310     3.8230 c3         1 001      -0.027100
     31 C22          2.9960     1.6830     3.0340 ca         1 001      -0.130300
     32 C23          3.7570     0.6030     2.5370 ca         1 001       0.334900
     33 N23          4.8870     0.7600     1.8080 nb         1 001      -0.665000
     34 C24          5.2900     2.0240     1.5400 ca         1 001       0.332900
     35 C25          4.5980     3.1600     1.9990 ca         1 001      -0.162000
     36 C26          3.4300     2.9930     2.7610 ca         1 001      -0.071000
     37 C27         -3.3050     0.3170     3.5020 c3         1 001      -0.080400
     38 C28         -4.5670     0.1440     2.6210 c3         1 001      -0.078400
     39 C29         -5.8470    -0.1130     3.4430 c3         1 001      -0.028100
     40 C30         -7.0710    -0.2840     2.5530 ca         1 001      -0.077300
     41 C31         -7.4110    -1.5550     2.0500 ca         1 001      -0.104000
     42 C32         -8.5380    -1.7130     1.2250 ca         1 001      -0.108500
     43 C33         -9.3300    -0.6000     0.8960 ca         1 001      -0.111000
     44 C34         -8.9950     0.6710     1.3930 ca         1 001      -0.108500
     45 C35         -7.8680     0.8280     2.2190 ca         1 001      -0.104000
     46 H021         0.6530     1.3530    -1.9480 ha         1 001       0.143500
     47 H061         2.5880    -1.3050    -4.6980 ha         1 001       0.143500
     48 H071         2.0800     3.8280     0.3260 h1         1 001       0.046033
     49 H072         1.0450     3.4840    -1.0760 h1         1 001       0.046033
     50 H073         1.2820     2.2470     0.1870 h1         1 001       0.046033
     51 H081         7.2740     1.8870    -2.1260 h1         1 001       0.035367
     52 H082         6.7390     0.2220    -2.4140 h1         1 001       0.035367
     53 H083         6.6270     1.4470    -3.7180 h1         1 001       0.035367
     54 H091         6.0890    -1.7340    -5.5420 h1         1 001       0.046033
     55 H092         4.6360    -2.4460    -4.8110 h1         1 001       0.046033
     56 H093         4.4850    -1.2050    -6.0870 h1         1 001       0.046033
     57 H121         0.2260    -3.5340    -2.4040 h1         1 001       0.054700
     58 H122         1.5890    -2.4180    -2.3380 h1         1 001       0.054700
     59 H131         1.9160    -4.4750    -0.9660 hc         1 001       0.059200
     60 H132         2.0970    -2.9800    -0.0510 hc         1 001       0.059200
     61 H141        -0.4880    -4.6690    -0.1470 hc         1 001       0.050200
     62 H142         0.6880    -4.6920     1.1760 hc         1 001       0.050200
     63 H151        -1.1780    -3.1130     1.6830 hc         1 001       0.059700
     64 H152         0.3750    -2.2980     1.6000 hc         1 001       0.059700
     65 H161        -1.9570    -2.1780    -0.3110 h1         1 001       0.077700
     66 H181        -2.1850     1.4970     2.0890 h1         1 001       0.072700
     67 H191        -1.0210     1.6090     4.3320 hc         1 001       0.050200
     68 H192        -0.6180    -0.0990     4.2090 hc         1 001       0.050200
     69 H201         0.7990     0.3770     2.1900 hc         1 001       0.048700
     70 H202         0.3490     2.0840     2.2800 hc         1 001       0.048700
     71 H211         1.4950     2.2820     4.4810 hc         1 001       0.048700
     72 H212         1.8510     0.5600     4.4780 hc         1 001       0.048700
     73 H231         3.4480    -0.4260     2.7250 h4         1 001       0.015100
     74 H241         6.1980     2.1290     0.9460 h4         1 001       0.019100
     75 H251         4.9670     4.1530     1.7590 ha         1 001       0.124000
     76 H261         2.8730     3.8570     3.1200 ha         1 001       0.118000
     77 H271        -3.1630    -0.5830     4.1140 hc         1 001       0.048200
     78 H272        -3.4730     1.1480     4.1980 hc         1 001       0.048200
     79 H281        -4.7080     1.0450     2.0100 hc         1 001       0.058700
     80 H282        -4.4180    -0.6920     1.9270 hc         1 001       0.058700
     81 H291        -5.7050    -1.0090     4.0620 hc         1 001       0.042200
     82 H292        -6.0020     0.7190     4.1420 hc         1 001       0.042200
     83 H311        -6.8000    -2.4210     2.2990 ha         1 001       0.108500
     84 H321        -8.7960    -2.6980     0.8400 ha         1 001       0.110000
     85 H331       -10.2020    -0.7230     0.2560 ha         1 001       0.110000
     86 H341        -9.6080     1.5330     1.1390 ha         1 001       0.110000
     87 H351        -7.6140     1.8160     2.5980 ha         1 001       0.108500
@<TRIPOS>BOND
     1     1     2 ar  
     2     1     6 ar  
     3     1    13 1   
     4     2     3 ar  
     5     2    46 1   
     6     3     4 ar  
     7     3     7 1   
     8     4     5 ar  
     9     4     9 1   
    10     5     6 ar  
    11     5    11 1   
    12     6    47 1   
    13     7     8 1   
    14     8    48 1   
    15     8    49 1   
    16     8    50 1   
    17     9    10 1   
    18    10    51 1   
    19    10    52 1   
    20    10    53 1   
    21    11    12 1   
    22    12    54 1   
    23    12    55 1   
    24    12    56 1   
    25    13    14 1   
    26    13    15 1   
    27    13    16 1   
    28    16    17 2   
    29    16    18 1   
    30    18    19 1   
    31    18    23 1   
    32    19    20 1   
    33    19    57 1   
    34    19    58 1   
    35    20    21 1   
    36    20    59 1   
    37    20    60 1   
    38    21    22 1   
    39    21    61 1   
    40    21    62 1   
    41    22    23 1   
    42    22    63 1   
    43    22    64 1   
    44    23    24 1   
    45    23    65 1   
    46    24    25 2   
    47    24    26 1   
    48    26    27 1   
    49    27    28 1   
    50    27    37 1   
    51    27    66 1   
    52    28    29 1   
    53    28    67 1   
    54    28    68 1   
    55    29    30 1   
    56    29    69 1   
    57    29    70 1   
    58    30    31 1   
    59    30    71 1   
    60    30    72 1   
    61    31    32 ar  
    62    31    36 ar  
    63    32    33 ar  
    64    32    73 1   
    65    33    34 ar  
    66    34    35 ar  
    67    34    74 1   
    68    35    36 ar  
    69    35    75 1   
    70    36    76 1   
    71    37    38 1   
    72    37    77 1   
    73    37    78 1   
    74    38    39 1   
    75    38    79 1   
    76    38    80 1   
    77    39    40 1   
    78    39    81 1   
    79    39    82 1   
    80    40    41 ar  
    81    40    45 ar  
    82    41    42 ar  
    83    41    83 1   
    84    42    43 ar  
    85    42    84 1   
    86    43    44 ar  
    87    43    85 1   
    88    44    45 ar  
    89    44    86 1   
    90    45    87 1   
@<TRIPOS>SUBSTRUCTURE
     1 001         1 TEMP              0 ****  ****    0 ROOT
