@<TRIPOS>MOLECULE
001
   87    90     1     0     0
SMALL
bcc


@<TRIPOS>ATOM
      1 C01          0.6370    -0.6750    -3.3150 ca         1 001      -0.098300
      2 C02          1.3370     0.2240    -2.5230 ca         1 001      -0.210500
      3 C03          2.5400     0.7480    -2.9890 ca         1 001       0.151600
      4 C04          3.0200     0.3850    -4.2490 ca         1 001       0.042100
      5 C05          2.2870    -0.4990    -5.0470 ca         1 001       0.151600
      6 C06          1.0920    -1.0380    -4.5750 ca         1 001      -0.210500
      7 O03          3.3120     1.5930    -2.2890 os         1 001      -0.300400
      8 C07          2.9060     1.9420    -0.9790 c3         1 001       0.119700
      9 O04          4.2080     0.8670    -4.6900 os         1 001      -0.306900
     10 C08          4.1150     2.1040    -5.3870 c3         1 001       0.125700
     11 O05          2.8230    -0.7780    -6.2440 os         1 001      -0.300400
     12 C09          2.1230    -1.6520    -7.1100 c3         1 001       0.119700
     13 C10         -0.6810    -1.2070    -2.8260 c3         1 001       0.411900
     14 F10         -1.6690    -0.3850    -3.2580 f          1 001      -0.220300
     15 F11         -0.9570    -2.4250    -3.3760 f          1 001      -0.220300
     16 C11         -0.8460    -1.3360    -1.2910 c          1 001       0.623100
     17 O11         -1.8520    -0.8830    -0.7850 o          1 001      -0.547100
     18 N12          0.1600    -1.8960    -0.5860 n          1 001      -0.446800
     19 C12          1.0080    -2.9480    -1.1620 c6         1 001       0.101000
     20 C13          2.3260    -3.1010    -0.4320 c6         1 001      -0.088400
     21 C14          2.0870    -3.3260     1.0480 c6         1 001      -0.075400
     22 C15          1.3210    -2.1390     1.6020 c6         1 001      -0.084400
     23 C16         -0.0030    -1.8800     0.8650 c6         1 001       0.045700
     24 C17         -0.4600    -0.5060     1.3360 c          1 001       0.663100
     25 O17         -0.0360     0.5320     0.8950 o          1 001      -0.544000
     26 O18         -1.2670    -0.6260     2.3730 os         1 001      -0.423900
     27 C18         -1.7520     0.5380     3.0790 c3         1 001       0.159100
     28 C19         -0.9590     0.7220     4.3620 c3         1 001      -0.095400
     29 C20          0.5250     1.0080     4.1690 c3         1 001      -0.073400
     30 C21          1.2210     1.3130     5.4970 c3         1 001      -0.027100
     31 C22          2.6870     1.5670     5.3090 ca         1 001      -0.195600
     32 C23          3.6170     0.5390     5.4350 ca         1 001       0.400200
     33 N23          4.9220     0.6820     5.2400 nb         1 001      -0.665000
     34 C24          5.3710     1.8850     4.9030 ca         1 001       0.398200
     35 C25          4.5390     2.9850     4.7510 ca         1 001      -0.245300
     36 C26          3.1790     2.8200     4.9570 ca         1 001      -0.089000
     37 C27         -3.2300     0.2960     3.3390 c3         1 001      -0.080400
     38 C28         -4.0850     0.3130     2.0780 c3         1 001      -0.078400
     39 C29         -5.5470    -0.0280     2.3660 c3         1 001      -0.028100
     40 C30         -6.3980     0.0640     1.1310 ca         1 001      -0.077300
     41 C31         -6.5760    -1.0420     0.3020 ca         1 001      -0.122000
     42 C32         -7.3270    -0.9480    -0.8630 ca         1 001      -0.126500
     43 C33         -7.9120     0.2600    -1.2200 ca         1 001      -0.129000
     44 C34         -7.7400     1.3710    -0.4030 ca         1 001      -0.126500
     45 C35         -6.9880     1.2710     0.7600 ca         1 001      -0.122000
     46 H021         0.9700     0.4910    -1.5420 ha         1 001       0.161500
     47 H061         0.5290    -1.7340    -5.1790 ha         1 001       0.161500
     48 H071         3.6840     2.5860    -0.5780 h1         1 001       0.046033
     49 H072         1.9600     2.4900    -0.9780 h1         1 001       0.046033
     50 H073         2.8040     1.0650    -0.3350 h1         1 001       0.046033
     51 H081         5.1250     2.3770    -5.6890 h1         1 001       0.035367
     52 H082         3.4930     2.0190    -6.2810 h1         1 001       0.035367
     53 H083         3.7140     2.8970    -4.7510 h1         1 001       0.035367
     54 H091         2.7140    -1.7190    -8.0200 h1         1 001       0.046033
     55 H092         2.0200    -2.6530    -6.6850 h1         1 001       0.046033
     56 H093         1.1310    -1.2680    -7.3610 h1         1 001       0.046033
     57 H121         0.4630    -3.8970    -1.1290 h1         1 001       0.054700
     58 H122         1.2100    -2.7290    -2.2060 h1         1 001       0.054700
     59 H131         2.8610    -3.9380    -0.8820 hc         1 001       0.059200
     60 H132         2.9400    -2.2080    -0.5800 hc         1 001       0.059200
     61 H141         1.5240    -4.2520     1.2030 hc         1 001       0.050200
     62 H142         3.0300    -3.4330     1.5850 hc         1 001       0.050200
     63 H151         1.0880    -2.2840     2.6580 hc         1 001       0.059700
     64 H152         1.9540    -1.2490     1.5290 hc         1 001       0.059700
     65 H161        -0.7340    -2.6380     1.1650 h1         1 001       0.077700
     66 H181        -1.6320     1.4190     2.4430 h1         1 001       0.072700
     67 H191        -1.4160     1.5580     4.8990 hc         1 001       0.050200
     68 H192        -1.0870    -0.1590     5.0010 hc         1 001       0.050200
     69 H201         1.0240     0.1520     3.7070 hc         1 001       0.048700
     70 H202         0.6560     1.8510     3.4840 hc         1 001       0.048700
     71 H211         0.7520     2.1820     5.9650 hc         1 001       0.048700
     72 H212         1.0780     0.4730     6.1810 hc         1 001       0.048700
     73 H231         3.2790    -0.4550     5.7140 h4         1 001       0.015100
     74 H241         6.4400     1.9810     4.7500 h4         1 001       0.019100
     75 H251         4.9520     3.9470     4.4790 ha         1 001       0.142000
     76 H261         2.5020     3.6590     4.8490 ha         1 001       0.136000
     77 H271        -3.3510    -0.6530     3.8710 hc         1 001       0.048200
     78 H272        -3.5820     1.0740     4.0220 hc         1 001       0.048200
     79 H281        -4.0310     1.3050     1.6200 hc         1 001       0.058700
     80 H282        -3.6910    -0.3890     1.3380 hc         1 001       0.058700
     81 H291        -5.6060    -1.0370     2.7820 hc         1 001       0.042200
     82 H292        -5.9330     0.6490     3.1330 hc         1 001       0.042200
     83 H311        -6.1270    -1.9900     0.5750 ha         1 001       0.126500
     84 H321        -7.4580    -1.8210    -1.4900 ha         1 001       0.128000
     85 H331        -8.5000     0.3350    -2.1250 ha         1 001       0.128000
     86 H341        -8.1950     2.3160    -0.6700 ha         1 001       0.128000
     87 H351        -6.8610     2.1430     1.3930 ha         1 001       0.126500
@<TRIPOS>BOND
     1     1     2 ar  
     2     1     6 ar  
     3     1    13 1   
     4     2     3 ar  
     5     2    46 1   
     6     3     4 ar  
     7     3     7 1   
     8     4     5 ar  
     9     4     9 1   
    10     5     6 ar  
    11     5    11 1   
    12     6    47 1   
    13     7     8 1   
    14     8    48 1   
    15     8    49 1   
    16     8    50 1   
    17     9    10 1   
    18    10    51 1   
    19    10    52 1   
    20    10    53 1   
    21    11    12 1   
    22    12    54 1   
    23    12    55 1   
    24    12    56 1   
    25    13    14 1   
    26    13    15 1   
    27    13    16 1   
    28    16    17 2   
    29    16    18 1   
    30    18    19 1   
    31    18    23 1   
    32    19    20 1   
    33    19    57 1   
    34    19    58 1   
    35    20    21 1   
    36    20    59 1   
    37    20    60 1   
    38    21    22 1   
    39    21    61 1   
    40    21    62 1   
    41    22    23 1   
    42    22    63 1   
    43    22    64 1   
    44    23    24 1   
    45    23    65 1   
    46    24    25 2   
    47    24    26 1   
    48    26    27 1   
    49    27    28 1   
    50    27    37 1   
    51    27    66 1   
    52    28    29 1   
    53    28    67 1   
    54    28    68 1   
    55    29    30 1   
    56    29    69 1   
    57    29    70 1   
    58    30    31 1   
    59    30    71 1   
    60    30    72 1   
    61    31    32 ar  
    62    31    36 ar  
    63    32    33 ar  
    64    32    73 1   
    65    33    34 ar  
    66    34    35 ar  
    67    34    74 1   
    68    35    36 ar  
    69    35    75 1   
    70    36    76 1   
    71    37    38 1   
    72    37    77 1   
    73    37    78 1   
    74    38    39 1   
    75    38    79 1   
    76    38    80 1   
    77    39    40 1   
    78    39    81 1   
    79    39    82 1   
    80    40    41 ar  
    81    40    45 ar  
    82    41    42 ar  
    83    41    83 1   
    84    42    43 ar  
    85    42    84 1   
    86    43    44 ar  
    87    43    85 1   
    88    44    45 ar  
    89    44    86 1   
    90    45    87 1   
@<TRIPOS>SUBSTRUCTURE
     1 001         1 TEMP              0 ****  ****    0 ROOT
