@<TRIPOS>MOLECULE
002
   66    66     1     0     0
SMALL
No Charge or Current Charge


@<TRIPOS>ATOM
      1 C1          -1.4940     1.0350     0.3600 c3         1 002       0.032700
      2 C2          -1.6600     2.5640     0.0590 c3         1 002      -0.059700
      3 C3          -2.9120     3.2210     0.7090 c3         1 002      -0.091400
      4 C4          -2.9880     3.0920     2.2460 c3         1 002      -0.086100
      5 C5           1.0260     0.7860     0.5610 c          1 002       0.614100
      6 C6          -2.6020     0.1470    -0.2880 c          1 002       0.593100
      7 C7          -5.0050    -0.6590    -0.0010 c3         1 002      -0.043300
      8 C8          -5.1700    -1.9110     0.9050 c3         1 002      -0.072400
      9 C10          3.2010     1.3060    -0.7350 c3         1 002      -0.157400
     10 C11         -6.2790     0.2390     0.0450 c          1 002       0.717000
     11 C12         -1.6100     2.8760    -1.4590 c3         1 002      -0.088100
     12 N3          -0.1670     0.5560    -0.0870 ns         1 002      -0.484900
     13 O6          -2.4080    -0.5180    -1.3000 o          1 002      -0.644100
     14 O1          -6.5040     0.8830     1.0620 o          1 002      -0.723000
     15 O2           6.3700     2.0250     1.2860 oh         1 002      -0.432100
     16 C13         -4.0470    -2.9820     0.7980 c3         1 002      -0.063700
     17 C20         -4.1910    -4.0460     1.9100 c3         1 002      -0.082600
     18 C21         -3.9970    -3.6580    -0.5940 c3         1 002      -0.082600
     19 C22          2.2730     0.1970    -0.1380 c3         1 002      -0.124700
     20 C23          2.9960    -0.8300     0.7810 c3         1 002      -0.029100
     21 O4           1.0780     1.3890     1.6230 o          1 002      -0.619100
     22 N2          -3.8120     0.1360     0.3770 ns         1 002      -0.445900
     23 C14          4.2010    -1.5190     0.1380 ca         1 002      -0.075300
     24 C15          5.4440    -1.5300     0.8040 ca         1 002      -0.114000
     25 C16          6.5590    -2.1570     0.2220 ca         1 002      -0.113500
     26 C17          6.4390    -2.7870    -1.0270 ca         1 002      -0.120000
     27 C18          5.2010    -2.7950    -1.6900 ca         1 002      -0.113500
     28 C19          4.0860    -2.1680    -1.1090 ca         1 002      -0.114000
     29 H1          -1.5500     0.8720     1.4440 h1         1 002       0.066700
     30 H2          -0.7940     3.0690     0.5040 hc         1 002       0.054700
     31 H31         -3.8300     2.8210     0.2610 hc         1 002       0.064700
     32 H32         -2.9060     4.2920     0.4660 hc         1 002       0.064700
     33 H41         -3.8330     3.6750     2.6330 hc         1 002       0.022700
     34 H42         -3.1320     2.0510     2.5560 hc         1 002       0.022700
     35 H43         -2.0710     3.4710     2.7130 hc         1 002       0.022700
     36 H7          -4.8980    -0.9850    -1.0420 h1         1 002       0.064700
     37 H81         -5.2430    -1.5740     1.9460 hc         1 002       0.049200
     38 H82         -6.1300    -2.3880     0.6710 hc         1 002       0.049200
     39 H101         3.8330     0.8250    -1.4920 hc         1 002       0.067700
     40 H102         2.5720     2.0610    -1.2230 hc         1 002       0.067700
     41 H121        -1.6390     3.9580    -1.6310 hc         1 002       0.041033
     42 H122        -0.6880     2.4950    -1.9130 hc         1 002       0.041033
     43 H123        -2.4630     2.4270    -1.9830 hc         1 002       0.041033
     44 HN3         -0.1260     0.0190    -0.9470 hn         1 002       0.333500
     45 HO2          7.1510     2.3600     0.7850 ho         1 002       0.443000
     46 H13         -3.0830    -2.4840     0.9600 hc         1 002       0.034700
     47 H201        -3.3720    -4.7740     1.8600 hc         1 002       0.024367
     48 H202        -4.1630    -3.5770     2.9020 hc         1 002       0.024367
     49 H203        -5.1390    -4.5880     1.8130 hc         1 002       0.024367
     50 H211        -3.8000    -2.9280    -1.3860 hc         1 002       0.024367
     51 H212        -3.1980    -4.4080    -0.6300 hc         1 002       0.024367
     52 H213        -4.9460    -4.1590    -0.8180 hc         1 002       0.024367
     53 HN1          5.6970     0.7820    -0.2730 hn         1 002       0.330500
     54 H22          1.8950    -0.3550    -1.0060 hc         1 002       0.063700
     55 H231         3.2980    -0.3270     1.7090 hc         1 002       0.072700
     56 H232         2.2720    -1.5960     1.0860 hc         1 002       0.072700
     57 HN2         -3.8870     0.7340     1.1920 hn         1 002       0.298500
     58 H15          5.5510    -1.0480     1.7740 ha         1 002       0.117500
     59 H16          7.5150    -2.1550     0.7400 ha         1 002       0.108500
     60 H17          7.3020    -3.2730    -1.4780 ha         1 002       0.107000
     61 H18          5.1050    -3.2900    -2.6540 ha         1 002       0.108500
     62 H19          3.1330    -2.1930    -1.6320 ha         1 002       0.117500
     63 C9           4.1120     2.0100     0.2860 c          1 002       0.598100
     64 O5          -6.9600     0.3270    -0.9670 o          1 002      -0.723000
     65 N1           5.4460     1.6220     0.2470 ns         1 002      -0.396400
     66 O3           3.7120     2.8980     1.0260 o          1 002      -0.546100
@<TRIPOS>BOND
     1     1     2 1   
     2     1     6 1   
     3     1    12 1   
     4     1    29 1   
     5     2     3 1   
     6     2    11 1   
     7     2    30 1   
     8     3     4 1   
     9     3    31 1   
    10     3    32 1   
    11     4    33 1   
    12     4    34 1   
    13     4    35 1   
    14     5    12 1   
    15     5    19 1   
    16     5    21 2   
    17     6    13 2   
    18     6    22 1   
    19     7     8 1   
    20     7    10 1   
    21     7    22 1   
    22     7    36 1   
    23     8    16 1   
    24     8    37 1   
    25     8    38 1   
    26     9    19 1   
    27     9    39 1   
    28     9    40 1   
    29     9    63 1   
    30    10    14 1   
    31    10    64 1   
    32    11    41 1   
    33    11    42 1   
    34    11    43 1   
    35    12    44 1   
    36    15    45 1   
    37    15    65 1   
    38    16    17 1   
    39    16    18 1   
    40    16    46 1   
    41    17    47 1   
    42    17    48 1   
    43    17    49 1   
    44    18    50 1   
    45    18    51 1   
    46    18    52 1   
    47    19    20 1   
    48    19    54 1   
    49    20    23 1   
    50    20    55 1   
    51    20    56 1   
    52    22    57 1   
    53    23    24 ar  
    54    23    28 ar  
    55    24    25 ar  
    56    24    58 1   
    57    25    26 ar  
    58    25    59 1   
    59    26    27 ar  
    60    26    60 1   
    61    27    28 ar  
    62    27    61 1   
    63    28    62 1   
    64    53    65 1   
    65    63    65 1   
    66    63    66 2   
@<TRIPOS>SUBSTRUCTURE
     1 002         1 TEMP              0 ****  ****    0 ROOT
