@<TRIPOS>MOLECULE
002
   66    66     1     0     0
SMALL
bcc


@<TRIPOS>ATOM
      1 C1          -1.1020     0.4350     0.7340 c3         1 002       0.032700
      2 C2          -1.1580     1.9480     1.0580 c3         1 002      -0.059700
      3 C3          -2.3850     2.3620     1.8750 c3         1 002      -0.091400
      4 C4          -2.5410     1.6510     3.2140 c3         1 002      -0.086100
      5 C5           1.2870    -0.1150     0.9300 c          1 002       0.681100
      6 C6          -2.1550     0.0170    -0.2910 c          1 002       0.660100
      7 C7          -4.5190    -0.4670    -0.6510 c3         1 002      -0.043300
      8 C8          -5.6310    -1.1410     0.1480 c3         1 002      -0.072400
      9 C10          2.8220     0.3550    -1.0640 c3         1 002      -0.157400
     10 C11         -5.0470     0.8330    -1.3150 c          1 002       0.927600
     11 C12         -1.0350     2.8080    -0.1940 c3         1 002      -0.088100
     12 N3           0.1790     0.0510     0.1930 ns         1 002      -0.551900
     13 O6          -1.8730    -0.0860    -1.4800 o          1 002      -0.644100
     14 O1          -4.6390     1.9220    -0.8780 o          1 002      -0.828300
     15 O2           4.6820     3.5180    -1.0910 oh         1 002      -0.393100
     16 C13         -5.2740    -2.4910     0.7760 c3         1 002      -0.063700
     17 C20         -6.4660    -3.0170     1.5700 c3         1 002      -0.082600
     18 C21         -4.8320    -3.5100    -0.2680 c3         1 002      -0.082600
     19 C22          2.5260    -0.5430     0.1410 c3         1 002      -0.124700
     20 C23          3.7400    -0.6960     1.0660 c3         1 002      -0.029100
     21 O4           1.2910    -0.0130     2.1490 o          1 002      -0.619100
     22 N2          -3.3700    -0.2460     0.1970 ns         1 002      -0.512900
     23 C14          4.9470    -1.2230     0.3410 ca         1 002      -0.075300
     24 C15          6.0140    -0.3870     0.0200 ca         1 002      -0.132000
     25 C16          7.1140    -0.8680    -0.6800 ca         1 002      -0.131500
     26 C17          7.1650    -2.1990    -1.0680 ca         1 002      -0.138000
     27 C18          6.1100    -3.0460    -0.7470 ca         1 002      -0.131500
     28 C19          5.0140    -2.5600    -0.0490 ca         1 002      -0.132000
     29 H1          -1.2640    -0.1260     1.6590 h1         1 002       0.066700
     30 H2          -0.2800     2.1310     1.6840 hc         1 002       0.054700
     31 H31         -3.2870     2.2550     1.2680 hc         1 002       0.064700
     32 H32         -2.2890     3.4340     2.0690 hc         1 002       0.064700
     33 H41         -3.3440     2.1000     3.7980 hc         1 002       0.022700
     34 H42         -2.7800     0.5890     3.1180 hc         1 002       0.022700
     35 H43         -1.6250     1.7170     3.8050 hc         1 002       0.022700
     36 H7          -4.2120    -1.1370    -1.4570 h1         1 002       0.064700
     37 H81         -5.9750    -0.4600     0.9360 hc         1 002       0.049200
     38 H82         -6.4790    -1.2800    -0.5270 hc         1 002       0.049200
     39 H101         3.6160    -0.0980    -1.6600 hc         1 002       0.067700
     40 H102         1.9630     0.4090    -1.7380 hc         1 002       0.067700
     41 H121        -0.9400     3.8580     0.0860 hc         1 002       0.041033
     42 H122        -0.1510     2.5480    -0.7750 hc         1 002       0.041033
     43 H123        -1.9160     2.7130    -0.8300 hc         1 002       0.041033
     44 HN3          0.2180    -0.0570    -0.8080 hn         1 002       0.333500
     45 HO2          4.2640     4.1460    -1.6940 ho         1 002       0.404000
     46 H13         -4.4460    -2.3440     1.4800 hc         1 002       0.034700
     47 H201        -6.2380    -3.9750     2.0410 hc         1 002       0.024367
     48 H202        -6.7590    -2.3230     2.3610 hc         1 002       0.024367
     49 H203        -7.3340    -3.1640     0.9230 hc         1 002       0.024367
     50 H211        -3.9080    -3.2170    -0.7660 hc         1 002       0.024367
     51 H212        -4.6560    -4.4850     0.1910 hc         1 002       0.024367
     52 H213        -5.5980    -3.6390    -1.0360 hc         1 002       0.024367
     53 HN1          4.7620     1.7250    -1.9910 hn         1 002       0.330500
     54 H22          2.2880    -1.5310    -0.2690 hc         1 002       0.063700
     55 H231         3.9790     0.2620     1.5320 hc         1 002       0.072700
     56 H232         3.4780    -1.3760     1.8780 hc         1 002       0.072700
     57 HN2         -3.5380    -0.0490     1.1700 hn         1 002       0.298500
     58 H15          5.9900     0.6520     0.3280 ha         1 002       0.135500
     59 H16          7.9310    -0.2000    -0.9200 ha         1 002       0.126500
     60 H17          8.0210    -2.5770    -1.6120 ha         1 002       0.125000
     61 H18          6.1440    -4.0880    -1.0370 ha         1 002       0.126500
     62 H19          4.2000    -3.2320     0.2010 ha         1 002       0.135500
     63 C9           3.1780     1.7680    -0.6620 c          1 002       0.665100
     64 O5          -5.8670     0.6480    -2.2360 o          1 002      -0.828300
     65 N1           4.1720     2.2950    -1.4030 ns         1 002      -0.463400
     66 O3           2.5920     2.3770     0.2150 o          1 002      -0.546100
@<TRIPOS>BOND
     1     1     2 1   
     2     1     6 1   
     3     1    12 1   
     4     1    29 1   
     5     2     3 1   
     6     2    11 1   
     7     2    30 1   
     8     3     4 1   
     9     3    31 1   
    10     3    32 1   
    11     4    33 1   
    12     4    34 1   
    13     4    35 1   
    14     5    12 1   
    15     5    19 1   
    16     5    21 2   
    17     6    13 2   
    18     6    22 1   
    19     7     8 1   
    20     7    10 1   
    21     7    22 1   
    22     7    36 1   
    23     8    16 1   
    24     8    37 1   
    25     8    38 1   
    26     9    19 1   
    27     9    39 1   
    28     9    40 1   
    29     9    63 1   
    30    10    14 1   
    31    10    64 1   
    32    11    41 1   
    33    11    42 1   
    34    11    43 1   
    35    12    44 1   
    36    15    45 1   
    37    15    65 1   
    38    16    17 1   
    39    16    18 1   
    40    16    46 1   
    41    17    47 1   
    42    17    48 1   
    43    17    49 1   
    44    18    50 1   
    45    18    51 1   
    46    18    52 1   
    47    19    20 1   
    48    19    54 1   
    49    20    23 1   
    50    20    55 1   
    51    20    56 1   
    52    22    57 1   
    53    23    24 ar  
    54    23    28 ar  
    55    24    25 ar  
    56    24    58 1   
    57    25    26 ar  
    58    25    59 1   
    59    26    27 ar  
    60    26    60 1   
    61    27    28 ar  
    62    27    61 1   
    63    28    62 1   
    64    53    65 1   
    65    63    65 1   
    66    63    66 2   
@<TRIPOS>SUBSTRUCTURE
     1 002         1 TEMP              0 ****  ****    0 ROOT
