@<TRIPOS>MOLECULE
003
   58    62     1     0     0
SMALL
No Charge or Current Charge


@<TRIPOS>ATOM
      1 C2           0.1500    -2.0510    -2.6180 c          1 003       0.628000
      2 O11          0.1090    -1.3780    -3.6400 o          1 003      -0.554000
      3 N3          -0.2730    -1.5210    -1.3840 n          1 003      -0.369300
      4 C7          -0.7430    -0.1090    -1.3290 c3         1 003       0.116000
      5 C8           0.3090     0.8870    -0.7680 c3         1 003      -0.079700
      6 C10          1.6120     0.9120    -1.6020 c3         1 003      -0.088100
      7 C9          -0.2900     2.3040    -0.6300 c3         1 003      -0.088100
      8 C4          -0.2420    -2.2820    -0.2320 cc         1 003       0.421900
      9 N16         -0.6210    -1.8870     0.9570 nd         1 003      -0.568800
     10 N15         -0.3340    -2.9990     1.7390 na         1 003       0.150800
     11 C23         -0.4230    -2.8760     3.2150 c3         1 003       0.132900
     12 C24          0.7940    -3.3750     4.0130 ca         1 003      -0.117300
     13 C29          2.1300    -2.9490     3.7590 ca         1 003      -0.016000
     14 C30          2.4380    -1.9460     2.8080 ca         1 003      -0.108000
     15 C31          3.7680    -1.5690     2.5630 ca         1 003      -0.099000
     16 C32          4.8150    -2.1770     3.2700 ca         1 003      -0.105000
     17 C33          4.5290    -3.1530     4.2360 ca         1 003      -0.098000
     18 C28          3.1970    -3.5340     4.4880 ca         1 003      -0.043000
     19 C27          2.9390    -4.4980     5.4780 ca         1 003      -0.079000
     20 C26          1.6210    -4.8770     5.7610 ca         1 003      -0.113000
     21 C25          0.5590    -4.3170     5.0380 ca         1 003      -0.079000
     22 C14          0.1630    -4.0860     0.9790 cd         1 003       0.018000
     23 C17          0.7090    -5.3480     1.5230 ca         1 003       0.001000
     24 C22          1.9430    -5.8730     1.0960 ca         1 003      -0.127500
     25 C21          2.4280    -7.0630     1.6630 ca         1 003       0.333900
     26 N20          1.7620    -7.7510     2.6180 nb         1 003      -0.655000
     27 C19          0.5790    -7.2470     3.0370 ca         1 003       0.333900
     28 C18          0.0240    -6.0630     2.5240 ca         1 003      -0.127500
     29 C5           0.2470    -3.5730    -0.2930 cc         1 003      -0.321600
     30 C6           0.6620    -4.2160    -1.5400 c          1 003       0.637600
     31 O13          0.9900    -5.3900    -1.6250 o          1 003      -0.524000
     32 N1           0.6150    -3.3730    -2.6540 n          1 003      -0.382400
     33 C12          1.0480    -3.9250    -3.9690 c3         1 003       0.085300
     34 H7C1        -1.6370    -0.0700    -0.6920 h1         1 003       0.070700
     35 H7C2        -1.0670     0.2310    -2.3200 h1         1 003       0.070700
     36 H8           0.5780     0.5550     0.2420 hc         1 003       0.055700
     37 H101         1.4070     1.2000    -2.6400 hc         1 003       0.036867
     38 H102         2.3260     1.6310    -1.1820 hc         1 003       0.036867
     39 H103         2.0950    -0.0720    -1.6050 hc         1 003       0.036867
     40 H9C1        -0.5770     2.7050    -1.6100 hc         1 003       0.036867
     41 H9C2         0.4360     2.9910    -0.1780 hc         1 003       0.036867
     42 H9C3        -1.1810     2.2880     0.0090 hc         1 003       0.036867
     43 H231        -1.3250    -3.4120     3.5340 h1         1 003       0.079200
     44 H232        -0.5840    -1.8200     3.4620 h1         1 003       0.079200
     45 H25         -0.4550    -4.6380     5.2650 ha         1 003       0.114000
     46 H30          1.6600    -1.4290     2.2590 ha         1 003       0.128000
     47 H31          3.9870    -0.7990     1.8260 ha         1 003       0.117000
     48 H32          5.8450    -1.8830     3.0790 ha         1 003       0.117000
     49 H33          5.3450    -3.6090     4.7920 ha         1 003       0.115000
     50 H27          3.7570    -4.9440     6.0380 ha         1 003       0.118000
     51 H26          1.4220    -5.6140     6.5370 ha         1 003       0.123000
     52 H22          2.5500    -5.3540     0.3620 ha         1 003       0.132500
     53 H18         -0.9400    -5.7250     2.8910 ha         1 003       0.132500
     54 H21          3.3860    -7.4760     1.3480 h4         1 003       0.022600
     55 H19          0.0560    -7.8140     3.8070 h4         1 003       0.022600
     56 H121         1.5550    -3.1550    -4.5650 h1         1 003       0.056033
     57 H122         0.1720    -4.2850    -4.5230 h1         1 003       0.056033
     58 H123         1.7540    -4.7550    -3.8420 h1         1 003       0.056033
@<TRIPOS>BOND
     1     1     2 2   
     2     1     3 1   
     3     1    32 1   
     4     3     4 1   
     5     3     8 1   
     6     4     5 1   
     7     4    34 1   
     8     4    35 1   
     9     5     6 1   
    10     5     7 1   
    11     5    36 1   
    12     6    37 1   
    13     6    38 1   
    14     6    39 1   
    15     7    40 1   
    16     7    41 1   
    17     7    42 1   
    18     8     9 2   
    19     8    29 1   
    20     9    10 1   
    21    10    11 1   
    22    10    22 1   
    23    11    12 1   
    24    11    43 1   
    25    11    44 1   
    26    12    13 ar  
    27    12    21 ar  
    28    13    14 ar  
    29    13    18 ar  
    30    14    15 ar  
    31    14    46 1   
    32    15    16 ar  
    33    15    47 1   
    34    16    17 ar  
    35    16    48 1   
    36    17    18 ar  
    37    17    49 1   
    38    18    19 ar  
    39    19    20 ar  
    40    19    50 1   
    41    20    21 ar  
    42    20    51 1   
    43    21    45 1   
    44    22    23 1   
    45    22    29 2   
    46    23    24 ar  
    47    23    28 ar  
    48    24    25 ar  
    49    24    52 1   
    50    25    26 ar  
    51    25    54 1   
    52    26    27 ar  
    53    27    28 ar  
    54    27    55 1   
    55    28    53 1   
    56    29    30 1   
    57    30    31 2   
    58    30    32 1   
    59    32    33 1   
    60    33    56 1   
    61    33    57 1   
    62    33    58 1   
@<TRIPOS>SUBSTRUCTURE
     1 003         1 TEMP              0 ****  ****    0 ROOT
