@<TRIPOS>MOLECULE
003
   58    62     1     0     0
SMALL
bcc


@<TRIPOS>ATOM
      1 C2           0.0600    -2.0820    -2.5710 c          1 003       0.837500
      2 O11         -0.0440    -1.4260    -3.5880 o          1 003      -0.629500
      3 N3          -0.2310    -1.5570    -1.3370 n          1 003      -0.436300
      4 C7          -0.6390    -0.1640    -1.1880 c3         1 003       0.116000
      5 C8           0.4820     0.7530    -0.7000 c3         1 003      -0.079700
      6 C10          1.6700     0.7700    -1.6560 c3         1 003      -0.088100
      7 C9          -0.0820     2.1570    -0.5060 c3         1 003      -0.088100
      8 C4          -0.1160    -2.3480    -0.2290 cc         1 003       0.487200
      9 N16         -0.3950    -1.9860     1.0000 nd         1 003      -0.568800
     10 N15         -0.1490    -3.0870     1.7360 na         1 003       0.129400
     11 C23         -0.2690    -3.0020     3.1880 c3         1 003       0.103600
     12 C24          0.9750    -3.4590     3.9000 ca         1 003      -0.117300
     13 C29          2.2180    -2.7880     3.7120 ca         1 003      -0.016000
     14 C30          2.3570    -1.6260     2.9140 ca         1 003      -0.126000
     15 C31          3.5740    -1.0150     2.7660 ca         1 003      -0.117000
     16 C32          4.7200    -1.5320     3.4010 ca         1 003      -0.123000
     17 C33          4.6180    -2.6500     4.1820 ca         1 003      -0.116000
     18 C28          3.3740    -3.2980     4.3630 ca         1 003      -0.043000
     19 C27          3.2630    -4.4390     5.1920 ca         1 003      -0.097000
     20 C26          2.0540    -5.0420     5.3840 ca         1 003      -0.131000
     21 C25          0.9100    -4.5460     4.7300 ca         1 003      -0.097000
     22 C14          0.2740    -4.1260     1.0050 cd         1 003       0.068700
     23 C17          0.5880    -5.4400     1.5760 ca         1 003       0.001000
     24 C22          1.8930    -5.9120     1.6010 ca         1 003      -0.210800
     25 C21          2.1380    -7.1350     2.2050 ca         1 003       0.399200
     26 N20          1.1890    -7.8910     2.7440 nb         1 003      -0.655000
     27 C19         -0.0590    -7.4440     2.6940 ca         1 003       0.399200
     28 C18         -0.4130    -6.2290     2.1270 ca         1 003      -0.210800
     29 C5           0.3130    -3.6740    -0.3050 cc         1 003      -0.386900
     30 C6           0.6430    -4.2850    -1.5610 c          1 003       0.780100
     31 O13          1.0200    -5.4300    -1.7050 o          1 003      -0.599500
     32 N1           0.4850    -3.4100    -2.6370 n          1 003      -0.516400
     33 C12          0.7860    -3.8940    -3.9810 c3         1 003       0.085300
     34 H7C1        -1.4740    -0.1420    -0.4850 h1         1 003       0.070700
     35 H7C2        -1.0160     0.1800    -2.1490 h1         1 003       0.070700
     36 H8           0.8240     0.3900     0.2750 hc         1 003       0.055700
     37 H101         1.3690     1.1000    -2.6520 hc         1 003       0.036867
     38 H102         2.4380     1.4590    -1.3000 hc         1 003       0.036867
     39 H103         2.1380    -0.2100    -1.7540 hc         1 003       0.036867
     40 H9C1        -0.4560     2.5640    -1.4480 hc         1 003       0.036867
     41 H9C2         0.6900     2.8330    -0.1370 hc         1 003       0.036867
     42 H9C3        -0.9020     2.1700     0.2140 hc         1 003       0.036867
     43 H231        -1.1290    -3.5890     3.5140 h1         1 003       0.079200
     44 H232        -0.4970    -1.9570     3.4000 h1         1 003       0.079200
     45 H25         -0.0350    -5.0550     4.8710 ha         1 003       0.132000
     46 H30          1.4970    -1.1950     2.4200 ha         1 003       0.146000
     47 H31          3.6540    -0.1230     2.1580 ha         1 003       0.135000
     48 H32          5.6750    -1.0410     3.2720 ha         1 003       0.135000
     49 H33          5.4910    -3.0520     4.6820 ha         1 003       0.133000
     50 H27          4.1520    -4.8230     5.6770 ha         1 003       0.136000
     51 H26          1.9690    -5.9090     6.0260 ha         1 003       0.141000
     52 H22          2.7070    -5.3370     1.1840 ha         1 003       0.150500
     53 H18         -1.4470    -5.9120     2.1240 ha         1 003       0.150500
     54 H21          3.1510    -7.5190     2.2530 h4         1 003       0.022600
     55 H19         -0.8220    -8.0770     3.1320 h4         1 003       0.022600
     56 H121         1.5750    -3.2980    -4.4340 h1         1 003       0.056033
     57 H122        -0.0990    -3.8530    -4.6120 h1         1 003       0.056033
     58 H123         1.1210    -4.9220    -3.9140 h1         1 003       0.056033
@<TRIPOS>BOND
     1     1     2 2   
     2     1     3 1   
     3     1    32 1   
     4     3     4 1   
     5     3     8 1   
     6     4     5 1   
     7     4    34 1   
     8     4    35 1   
     9     5     6 1   
    10     5     7 1   
    11     5    36 1   
    12     6    37 1   
    13     6    38 1   
    14     6    39 1   
    15     7    40 1   
    16     7    41 1   
    17     7    42 1   
    18     8     9 2   
    19     8    29 1   
    20     9    10 1   
    21    10    11 1   
    22    10    22 1   
    23    11    12 1   
    24    11    43 1   
    25    11    44 1   
    26    12    13 ar  
    27    12    21 ar  
    28    13    14 ar  
    29    13    18 ar  
    30    14    15 ar  
    31    14    46 1   
    32    15    16 ar  
    33    15    47 1   
    34    16    17 ar  
    35    16    48 1   
    36    17    18 ar  
    37    17    49 1   
    38    18    19 ar  
    39    19    20 ar  
    40    19    50 1   
    41    20    21 ar  
    42    20    51 1   
    43    21    45 1   
    44    22    23 1   
    45    22    29 2   
    46    23    24 ar  
    47    23    28 ar  
    48    24    25 ar  
    49    24    52 1   
    50    25    26 ar  
    51    25    54 1   
    52    26    27 ar  
    53    27    28 ar  
    54    27    55 1   
    55    28    53 1   
    56    29    30 1   
    57    30    31 2   
    58    30    32 1   
    59    32    33 1   
    60    33    56 1   
    61    33    57 1   
    62    33    58 1   
@<TRIPOS>SUBSTRUCTURE
     1 003         1 TEMP              0 ****  ****    0 ROOT
