@<TRIPOS>MOLECULE
004
   19    19     1     0     0
SMALL
No Charge or Current Charge


@<TRIPOS>ATOM
      1 C           30.7210     2.5420    52.8010 c          1 004       0.725000
      2 N           32.3730     0.5580    53.4120 n8         1 004      -1.004200
      3 O           30.5610     3.0030    53.9260 o          1 004      -0.716500
      4 CA          31.1590     1.0230    52.6400 c3         1 004       0.043800
      5 CB          29.9590     0.1010    52.8750 ca         1 004      -0.000300
      6 CE          27.7350    -1.5910    53.2900 ca         1 004      -0.147000
      7 CD1         28.3650    -0.9770    54.3850 ca         1 004      -0.129500
      8 CD2         28.2120    -1.3620    51.9890 ca         1 004      -0.129500
      9 CG1         29.4720    -0.1350    54.1780 ca         1 004      -0.097000
     10 CG2         29.3180    -0.5200    51.7820 ca         1 004      -0.097000
     11 OXT         30.5860     3.2130    51.7840 o          1 004      -0.716500
     12 HN          32.6240    -0.3900    53.1070 hn         1 004       0.387000
     13 HNA         33.1850     1.1280    53.1420 hn         1 004       0.387000
     14 HA          31.4470     0.9120    51.5850 h1         1 004       0.007700
     15 HE          26.8790    -2.2430    53.4490 ha         1 004       0.083000
     16 HD1         27.9970    -1.1530    55.3930 ha         1 004       0.086000
     17 HD2         27.7240    -1.8370    51.1400 ha         1 004       0.086000
     18 HG1         29.9540     0.3380    55.0300 ha         1 004       0.115500
     19 HG2         29.6780    -0.3480    50.7700 ha         1 004       0.115500
@<TRIPOS>BOND
     1     1     3 1   
     2     1     4 1   
     3     1    11 1   
     4     2     4 1   
     5     2    12 1   
     6     2    13 1   
     7     4     5 1   
     8     4    14 1   
     9     5     9 ar  
    10     5    10 ar  
    11     6     7 ar  
    12     6     8 ar  
    13     6    15 1   
    14     7     9 ar  
    15     7    16 1   
    16     8    10 ar  
    17     8    17 1   
    18     9    18 1   
    19    10    19 1   
@<TRIPOS>SUBSTRUCTURE
     1 004         1 TEMP              0 ****  ****    0 ROOT
