@<TRIPOS>MOLECULE
004
   19    19     1     0     0
SMALL
abcg2


@<TRIPOS>ATOM
      1 C           30.7800     2.4180    52.6940 c          1 004       0.725000
      2 N           32.2460     0.6200    53.6000 n8         1 004      -1.004200
      3 O           31.4760     3.1700    53.4010 o          1 004      -0.716500
      4 CA          31.2050     0.9150    52.6340 c3         1 004       0.043800
      5 CB          29.9960     0.0350    52.8450 ca         1 004      -0.000300
      6 CE          27.6950    -1.5240    53.2360 ca         1 004      -0.147000
      7 CD1         28.3990    -1.0240    54.3250 ca         1 004      -0.129500
      8 CD2         28.1410    -1.2420    51.9520 ca         1 004      -0.129500
      9 CG1         29.5380    -0.2540    54.1300 ca         1 004      -0.097000
     10 CG2         29.2810    -0.4710    51.7640 ca         1 004      -0.097000
     11 OXT         29.8010     2.7280    51.9930 o          1 004      -0.716500
     12 HN          32.8130    -0.1530    53.2780 hn         1 004       0.387000
     13 HNA         32.8460     1.4300    53.6800 hn         1 004       0.387000
     14 HA          31.5390     0.7610    51.5950 h1         1 004       0.007700
     15 HE          26.8120    -2.1310    53.3880 ha         1 004       0.083000
     16 HD1         28.0610    -1.2380    55.3310 ha         1 004       0.086000
     17 HD2         27.6030    -1.6270    51.0940 ha         1 004       0.086000
     18 HG1         30.0900     0.1150    54.9840 ha         1 004       0.115500
     19 HG2         29.6260    -0.2670    50.7560 ha         1 004       0.115500
@<TRIPOS>BOND
     1     1     3 1   
     2     1     4 1   
     3     1    11 1   
     4     2     4 1   
     5     2    12 1   
     6     2    13 1   
     7     4     5 1   
     8     4    14 1   
     9     5     9 ar  
    10     5    10 ar  
    11     6     7 ar  
    12     6     8 ar  
    13     6    15 1   
    14     7     9 ar  
    15     7    16 1   
    16     8    10 ar  
    17     8    17 1   
    18     9    18 1   
    19    10    19 1   
@<TRIPOS>SUBSTRUCTURE
     1 004         1 TEMP              0 ****  ****    0 ROOT
