@<TRIPOS>MOLECULE
005
   26    26     1     0     0
SMALL
No Charge or Current Charge


@<TRIPOS>ATOM
      1 C            3.2850    -0.1170    -0.4270 c          1 005       0.714000
      2 N            0.5300    -1.3830    -0.3800 n8         1 005      -0.964200
      3 O            3.5100     0.7150    -1.3000 o          1 005      -0.723500
      4 CA           2.1780     0.2250     0.6360 c3         1 005       0.023300
      5 CD          -1.7980     0.1940     0.4420 ca         1 005      -0.055300
      6 CG          -0.3980     0.4350     1.0060 c3         1 005      -0.084100
      7 CH          -4.3830    -0.2400    -0.6010 ca         1 005      -0.131000
      8 CB1          0.7460     0.0180     0.0400 c3         1 005       0.152500
      9 OB2          2.3320     1.5820     1.1540 oh         1 005      -0.704000
     10 CE1         -2.6430    -0.7770     1.0160 ca         1 005      -0.114500
     11 CE2         -2.2600     0.9500    -0.6540 ca         1 005      -0.114500
     12 CZ1         -3.9310    -0.9940     0.4950 ca         1 005      -0.114000
     13 CZ2         -3.5470     0.7320    -1.1750 ca         1 005      -0.114000
     14 OXT          4.0160    -1.0790    -0.2240 o          1 005      -0.723500
     15 HN           0.6100    -1.9900     0.4430 hn         1 005       0.378000
     16 HNA         -0.4540    -1.4820    -0.6510 hn         1 005       0.378000
     17 HA           2.2970    -0.4850     1.4660 h1         1 005       0.037700
     18 HG          -0.2970     1.5010     1.2430 hc         1 005       0.052200
     19 HGA         -0.2720    -0.0950     1.9580 hc         1 005       0.052200
     20 HH          -5.3790    -0.4080    -1.0040 ha         1 005       0.098000
     21 HB1          0.6640     0.6440    -0.8610 h1         1 005       0.065700
     22 HOB2         2.6910     2.1180     0.4070 ho         1 005       0.467000
     23 HE1         -2.3030    -1.3660     1.8650 ha         1 005       0.112500
     24 HE2         -1.6200     1.7070    -1.1030 ha         1 005       0.112500
     25 HZ1         -4.5780    -1.7460     0.9410 ha         1 005       0.100000
     26 HZ2         -3.8970     1.3180    -2.0220 ha         1 005       0.100000
@<TRIPOS>BOND
     1     1     3 1   
     2     1     4 1   
     3     1    14 1   
     4     2     8 1   
     5     2    15 1   
     6     2    16 1   
     7     4     8 1   
     8     4     9 1   
     9     4    17 1   
    10     5     6 1   
    11     5    10 ar  
    12     5    11 ar  
    13     6     8 1   
    14     6    18 1   
    15     6    19 1   
    16     7    12 ar  
    17     7    13 ar  
    18     7    20 1   
    19     8    21 1   
    20     9    22 1   
    21    10    12 ar  
    22    10    23 1   
    23    11    13 ar  
    24    11    24 1   
    25    12    25 1   
    26    13    26 1   
@<TRIPOS>SUBSTRUCTURE
     1 005         1 TEMP              0 ****  ****    0 ROOT
