@<TRIPOS>MOLECULE
005
   26    26     1     0     0
SMALL
bcc


@<TRIPOS>ATOM
      1 C            3.1920    -0.2230    -0.3080 c          1 005       0.924600
      2 N            0.6360    -1.5000    -0.1350 n8         1 005      -0.853800
      3 O            3.4710     0.5220    -1.2770 o          1 005      -0.828800
      4 CA           2.0810     0.3330     0.6080 c3         1 005       0.000100
      5 CD          -1.7830     0.2500     0.4760 ca         1 005      -0.055300
      6 CG          -0.4060     0.4710     1.0300 c3         1 005      -0.084100
      7 CH          -4.3100    -0.1900    -0.6590 ca         1 005      -0.149000
      8 CB1          0.6910    -0.0670     0.0890 c3         1 005       0.152500
      9 OB2          2.1930     1.7380     0.6720 oh         1 005      -0.641800
     10 CE1         -2.5290    -0.8810     0.8060 ca         1 005      -0.132500
     11 CE2         -2.3270     1.1550    -0.4360 ca         1 005      -0.132500
     12 CZ1         -3.7820    -1.1010     0.2450 ca         1 005      -0.132000
     13 CZ2         -3.5770     0.9420    -0.9970 ca         1 005      -0.132000
     14 OXT          3.7120    -1.3110    -0.0220 o          1 005      -0.828800
     15 HN           0.8390    -1.9930     0.7270 hn         1 005       0.322800
     16 HNA         -0.3040    -1.7720    -0.3970 hn         1 005       0.322800
     17 HA           2.2060    -0.0660     1.6230 h1         1 005       0.037700
     18 HG          -0.2460     1.5390     1.1890 hc         1 005       0.052200
     19 HGA         -0.3070    -0.0180     2.0050 hc         1 005       0.052200
     20 HH          -5.2870    -0.3580    -1.0950 ha         1 005       0.116000
     21 HB1          0.5600     0.4190    -0.8860 h1         1 005       0.065700
     22 HOB2         2.5950     1.9670    -0.1810 ho         1 005       0.428000
     23 HE1         -2.1280    -1.5940     1.5180 ha         1 005       0.130500
     24 HE2         -1.7640     2.0420    -0.7060 ha         1 005       0.130500
     25 HZ1         -4.3450    -1.9840     0.5190 ha         1 005       0.118000
     26 HZ2         -3.9830     1.6600    -1.6980 ha         1 005       0.118000
@<TRIPOS>BOND
     1     1     3 1   
     2     1     4 1   
     3     1    14 1   
     4     2     8 1   
     5     2    15 1   
     6     2    16 1   
     7     4     8 1   
     8     4     9 1   
     9     4    17 1   
    10     5     6 1   
    11     5    10 ar  
    12     5    11 ar  
    13     6     8 1   
    14     6    18 1   
    15     6    19 1   
    16     7    12 ar  
    17     7    13 ar  
    18     7    20 1   
    19     8    21 1   
    20     9    22 1   
    21    10    12 ar  
    22    10    23 1   
    23    11    13 ar  
    24    11    24 1   
    25    12    25 1   
    26    13    26 1   
@<TRIPOS>SUBSTRUCTURE
     1 005         1 TEMP              0 ****  ****    0 ROOT
