@<TRIPOS>MOLECULE
006
   86    90     1     0     0
SMALL
No Charge or Current Charge


@<TRIPOS>ATOM
      1 N2          -2.4020     0.3250    -1.2620 ns         1 006      -0.505900
      2 C20         -0.9490     0.3110    -1.0410 c3         1 006       0.082700
      3 O20         -0.4150     0.5310    -3.4460 oh         1 006      -0.647000
      4 C21         -0.4410    -1.1500    -0.8950 c3         1 006      -0.049100
      5 C22         -1.1830    -1.9200     0.1930 ca         1 006      -0.084300
      6 C23         -2.2270    -2.8050    -0.1420 ca         1 006      -0.104000
      7 C24         -2.9260    -3.4930     0.8660 ca         1 006      -0.111500
      8 C25         -2.5840    -3.3000     2.2150 ca         1 006      -0.111000
      9 C26         -1.5420    -2.4200     2.5550 ca         1 006      -0.111500
     10 C27         -0.8440    -1.7320     1.5470 ca         1 006      -0.104000
     11 C28         -0.2180     1.1390    -2.1400 c3         1 006       0.090300
     12 C29          1.2980     1.3060    -1.8060 c          1 006       0.579100
     13 N30          4.7460     0.5480     0.3820 ns         1 006      -0.478900
     14 O30          7.3890     0.5450     0.3920 oh         1 006      -0.660000
     15 C31          5.2410    -0.6660     1.0350 c5         1 006       0.159000
     16 C32          5.3070    -1.8820     0.1450 ca         1 006      -0.108300
     17 C33          4.2830    -2.3890    -0.6730 ca         1 006      -0.075000
     18 C34          4.5280    -3.5510    -1.4300 ca         1 006      -0.111000
     19 C35          6.7960    -0.3970     1.3070 c5         1 006       0.155300
     20 C36          6.5350    -2.5100     0.2150 ca         1 006      -0.080300
     21 C37          6.7960    -3.6710    -0.5290 ca         1 006      -0.097000
     22 C38          5.7830    -4.1920    -1.3580 ca         1 006      -0.107000
     23 C39          7.4810    -1.8140     1.1600 c5         1 006      -0.066100
     24 C40         -9.7430    -0.5200    -0.2010 ca         1 006      -0.107000
     25 O40         -3.0320     1.1130     0.7830 o          1 006      -0.574100
     26 C41         -8.7900    -1.4770     0.1840 ca         1 006      -0.110000
     27 O41         -5.7510     0.6180     0.3270 os         1 006      -0.335100
     28 C42         -7.4440    -1.1070     0.3710 ca         1 006      -0.078800
     29 C43         -6.4320    -2.1640     0.8060 c3         1 006      -0.046300
     30 C45         -7.0620     0.2390     0.1570 ca         1 006       0.088100
     31 C46         -8.0200     1.2070    -0.2190 ca         1 006      -0.078800
     32 C47         -9.3610     0.8170    -0.3990 ca         1 006      -0.110000
     33 C48         -3.3470     0.6540    -0.3100 c          1 006       0.599100
     34 C49         -4.8060     0.3790    -0.7390 c3         1 006       0.079600
     35 C50          0.8080     3.2340    -0.2120 c5         1 006       0.230000
     36 N50          1.7030     2.2080    -0.7970 n          1 006      -0.388800
     37 O50          2.6020     0.1880     1.1230 o          1 006      -0.594100
     38 S50          1.6030     3.7000     1.3840 ss         1 006      -0.380000
     39 C51          3.2720     3.4640     0.6360 c5         1 006       0.092000
     40 C52          3.6340     4.7290    -0.1880 c3         1 006      -0.082100
     41 C53          4.2980     3.3470     1.7970 c3         1 006      -0.082100
     42 C54          3.1160     2.1880    -0.2830 c5         1 006       0.027700
     43 C55          3.4110     0.8760     0.5110 c          1 006       0.596100
     44 HN2         -2.7460    -0.0200    -2.1510 hn         1 006       0.316500
     45 H20         -0.7470     0.7970    -0.0770 h1         1 006       0.102700
     46 HO20         0.4540     0.1390    -3.6970 ho         1 006       0.467000
     47 H21         -0.5440    -1.6710    -1.8550 hc         1 006       0.061700
     48 H21A         0.6310    -1.1440    -0.6680 hc         1 006       0.061700
     49 H23         -2.5030    -2.9560    -1.1840 ha         1 006       0.119000
     50 H24         -3.7320    -4.1730     0.6010 ha         1 006       0.112000
     51 H25         -3.1250    -3.8300     2.9950 ha         1 006       0.111000
     52 H26         -1.2770    -2.2700     3.5990 ha         1 006       0.112000
     53 H27         -0.0420    -1.0490     1.8190 ha         1 006       0.119000
     54 H28         -0.6520     2.1470    -2.1470 h1         1 006       0.092700
     55 HN30         5.3600     1.1650    -0.1380 hn         1 006       0.333500
     56 HO30         8.3440     0.5980     0.6170 ho         1 006       0.447000
     57 H31          4.7200    -0.9030     1.9740 h1         1 006       0.092700
     58 H33          3.3160    -1.8930    -0.7230 ha         1 006       0.131000
     59 H34          3.7470    -3.9560    -2.0700 ha         1 006       0.114000
     60 H35          6.9300    -0.0200     2.3310 h1         1 006       0.046700
     61 H37          7.7640    -4.1620    -0.4660 ha         1 006       0.112000
     62 H38          5.9680    -5.0900    -1.9430 ha         1 006       0.111000
     63 H39          8.5050    -1.7540     0.7740 hc         1 006       0.059200
     64 H39A         7.5260    -2.3330     2.1240 hc         1 006       0.059200
     65 H41         -9.1000    -2.5080     0.3390 ha         1 006       0.112500
     66 H43         -5.9030    -2.5800    -0.0600 hc         1 006       0.047367
     67 H43A        -5.6830    -1.7510     1.4920 hc         1 006       0.047367
     68 H43B        -6.9210    -2.9970     1.3260 hc         1 006       0.047367
     69 H44         -6.9630     2.7600    -1.3120 hc         1 006       0.047367
     70 H44A        -8.4880     3.3060    -0.6020 hc         1 006       0.047367
     71 H44B        -7.0770     3.0560     0.4320 hc         1 006       0.047367
     72 H47        -10.1100     1.5480    -0.6940 ha         1 006       0.112500
     73 H49         -4.8540    -0.6650    -1.0710 h1         1 006       0.048700
     74 H49A        -5.0310     1.0140    -1.6050 h1         1 006       0.048700
     75 H50          0.7860     4.0870    -0.9020 h2         1 006       0.085200
     76 H50A        -0.1860     2.8110    -0.0300 h2         1 006       0.085200
     77 H52          3.6060     5.6320     0.4330 hc         1 006       0.050033
     78 H52A         4.6430     4.6480    -0.6100 hc         1 006       0.050033
     79 H52B         2.9460     4.8850    -1.0270 hc         1 006       0.050033
     80 H53          4.0370     2.5450     2.4970 hc         1 006       0.050033
     81 H53A         5.3090     3.1530     1.4200 hc         1 006       0.050033
     82 H53B         4.3390     4.2750     2.3820 hc         1 006       0.050033
     83 H54          3.8250     2.2330    -1.1200 h1         1 006       0.093700
     84 O21          2.1330     0.6370    -2.4050 o          1 006      -0.616100
     85 H40        -10.7800    -0.8140    -0.3430 ha         1 006       0.114000
     86 C44         -7.6170     2.6620    -0.4370 c3         1 006      -0.046300
@<TRIPOS>BOND
     1     1     2 1   
     2     1    33 1   
     3     1    44 1   
     4     2     4 1   
     5     2    11 1   
     6     2    45 1   
     7     3    11 1   
     8     3    46 1   
     9     4     5 1   
    10     4    47 1   
    11     4    48 1   
    12     5     6 ar  
    13     5    10 ar  
    14     6     7 ar  
    15     6    49 1   
    16     7     8 ar  
    17     7    50 1   
    18     8     9 ar  
    19     8    51 1   
    20     9    10 ar  
    21     9    52 1   
    22    10    53 1   
    23    11    12 1   
    24    11    54 1   
    25    12    36 1   
    26    12    84 2   
    27    13    15 1   
    28    13    43 1   
    29    13    55 1   
    30    14    19 1   
    31    14    56 1   
    32    15    16 1   
    33    15    19 1   
    34    15    57 1   
    35    16    17 ar  
    36    16    20 ar  
    37    17    18 ar  
    38    17    58 1   
    39    18    22 ar  
    40    18    59 1   
    41    19    23 1   
    42    19    60 1   
    43    20    21 ar  
    44    20    23 1   
    45    21    22 ar  
    46    21    61 1   
    47    22    62 1   
    48    23    63 1   
    49    23    64 1   
    50    24    26 ar  
    51    24    32 ar  
    52    24    85 1   
    53    25    33 2   
    54    26    28 ar  
    55    26    65 1   
    56    27    30 1   
    57    27    34 1   
    58    28    29 1   
    59    28    30 ar  
    60    29    66 1   
    61    29    67 1   
    62    29    68 1   
    63    30    31 ar  
    64    31    32 ar  
    65    31    86 1   
    66    32    72 1   
    67    33    34 1   
    68    34    73 1   
    69    34    74 1   
    70    35    36 1   
    71    35    38 1   
    72    35    75 1   
    73    35    76 1   
    74    36    42 1   
    75    37    43 2   
    76    38    39 1   
    77    39    40 1   
    78    39    41 1   
    79    39    42 1   
    80    40    77 1   
    81    40    78 1   
    82    40    79 1   
    83    41    80 1   
    84    41    81 1   
    85    41    82 1   
    86    42    43 1   
    87    42    83 1   
    88    69    86 1   
    89    70    86 1   
    90    71    86 1   
@<TRIPOS>SUBSTRUCTURE
     1 006         1 TEMP              0 ****  ****    0 ROOT
