@<TRIPOS>MOLECULE
006
   86    90     1     0     0
SMALL
abcg2


@<TRIPOS>ATOM
      1 N2          -2.2280     0.4500    -1.4980 ns         1 006      -0.505900
      2 C20         -0.7980     0.4190    -1.3140 c3         1 006       0.082700
      3 O20         -0.2150     1.0760    -3.5940 oh         1 006      -0.647000
      4 C21         -0.2790    -1.0150    -1.4950 c3         1 006      -0.049100
      5 C22         -0.9610    -1.9420    -0.5280 ca         1 006      -0.084300
      6 C23         -2.0820    -2.6770    -0.9060 ca         1 006      -0.104000
      7 C24         -2.7540    -3.4730     0.0120 ca         1 006      -0.111500
      8 C25         -2.3090    -3.5490     1.3250 ca         1 006      -0.111000
      9 C26         -1.1850    -2.8290     1.7100 ca         1 006      -0.111500
     10 C27         -0.5180    -2.0330     0.7890 ca         1 006      -0.104000
     11 C28         -0.1250     1.4490    -2.2520 c3         1 006       0.090300
     12 C29          1.3310     1.6100    -1.8390 c          1 006       0.579100
     13 N30          4.3250     0.5050     0.4690 ns         1 006      -0.478900
     14 O30          6.9160    -0.0550     0.9870 oh         1 006      -0.660000
     15 C31          4.6570    -0.7670     1.0490 c5         1 006       0.159000
     16 C32          4.7920    -1.9060     0.0680 ca         1 006      -0.108300
     17 C33          4.1020    -2.1350    -1.1080 ca         1 006      -0.075000
     18 C34          4.3900    -3.2880    -1.8350 ca         1 006      -0.111000
     19 C35          6.0110    -0.7880     1.7780 c5         1 006       0.155300
     20 C36          5.7610    -2.7940     0.5210 ca         1 006      -0.080300
     21 C37          6.0460    -3.9420    -0.1980 ca         1 006      -0.097000
     22 C38          5.3510    -4.1850    -1.3800 ca         1 006      -0.107000
     23 C39          6.3590    -2.2860     1.8050 c5         1 006      -0.066100
     24 C40         -8.9150    -0.8620     0.9920 ca         1 006      -0.107000
     25 O40         -2.7710     1.2900     0.5350 o          1 006      -0.574100
     26 C41         -7.7440    -1.1900     1.6580 ca         1 006      -0.110000
     27 O41         -5.3920     1.0700     0.0400 os         1 006      -0.335100
     28 C42         -6.5410    -0.5620     1.3460 ca         1 006      -0.078800
     29 C43         -5.2770    -0.9060     2.0800 c3         1 006      -0.046300
     30 C45         -6.5520     0.4090     0.3420 ca         1 006       0.088100
     31 C46         -7.7170     0.7610    -0.3400 ca         1 006      -0.078800
     32 C47         -8.8990     0.1120     0.0040 ca         1 006      -0.110000
     33 C48         -3.0940     0.7770    -0.5200 c          1 006       0.599100
     34 C49         -4.5280     0.3960    -0.8390 c3         1 006       0.079600
     35 C50          0.6380     3.2500    -0.1080 c5         1 006       0.230000
     36 N50          1.6160     2.4270    -0.8100 n          1 006      -0.388800
     37 O50          2.1230     0.4690     0.9940 o          1 006      -0.594100
     38 S50          1.4150     3.7040     1.4570 ss         1 006      -0.380000
     39 C51          3.0760     3.5840     0.7020 c5         1 006       0.092000
     40 C52          3.3710     4.8280    -0.1320 c3         1 006      -0.082100
     41 C53          4.1180     3.4260     1.7980 c3         1 006      -0.082100
     42 C54          2.9420     2.3640    -0.2300 c5         1 006       0.027700
     43 C55          3.0850     1.0130     0.4770 c          1 006       0.596100
     44 HN2         -2.5910     0.0410    -2.3470 hn         1 006       0.316500
     45 H20         -0.6020     0.7110    -0.2810 h1         1 006       0.102700
     46 HO20         0.5370     0.5030    -3.7930 ho         1 006       0.467000
     47 H21         -0.4520    -1.3500    -2.5210 hc         1 006       0.061700
     48 H21A         0.7990    -1.0320    -1.3250 hc         1 006       0.061700
     49 H23         -2.4310    -2.6330    -1.9310 ha         1 006       0.119000
     50 H24         -3.6260    -4.0350    -0.2990 ha         1 006       0.112000
     51 H25         -2.8330    -4.1680     2.0420 ha         1 006       0.111000
     52 H26         -0.8260    -2.8890     2.7290 ha         1 006       0.112000
     53 H27          0.3590    -1.4730     1.0940 ha         1 006       0.119000
     54 H28         -0.6640     2.3950    -2.1450 h1         1 006       0.092700
     55 HN30         5.0510     0.9890    -0.0360 hn         1 006       0.333500
     56 HO30         7.7510     0.0120     1.4590 ho         1 006       0.447000
     57 H31          3.8760    -1.0110     1.7740 h1         1 006       0.092700
     58 H33          3.3700    -1.4260    -1.4760 ha         1 006       0.131000
     59 H34          3.8700    -3.4840    -2.7630 ha         1 006       0.114000
     60 H35          5.9270    -0.3660     2.7850 h1         1 006       0.046700
     61 H37          6.8030    -4.6380     0.1420 ha         1 006       0.112000
     62 H38          5.5680    -5.0750    -1.9570 ha         1 006       0.111000
     63 H39          7.4320    -2.4650     1.8970 hc         1 006       0.059200
     64 H39A         5.8810    -2.7620     2.6670 hc         1 006       0.059200
     65 H41         -7.7590    -1.9440     2.4360 ha         1 006       0.112500
     66 H43         -4.5820    -1.4790     1.4610 hc         1 006       0.047367
     67 H43A        -4.7420    -0.0160     2.4090 hc         1 006       0.047367
     68 H43B        -5.4990    -1.5140     2.9560 hc         1 006       0.047367
     69 H44         -7.0270     1.5520    -2.2300 hc         1 006       0.047367
     70 H44A        -8.6850     1.9670    -1.8240 hc         1 006       0.047367
     71 H44B        -7.3470     2.7770    -1.0150 hc         1 006       0.047367
     72 H47         -9.8160     0.3710    -0.5130 ha         1 006       0.112500
     73 H49         -4.6070    -0.6930    -0.7340 h1         1 006       0.048700
     74 H49A        -4.7640     0.6300    -1.8840 h1         1 006       0.048700
     75 H50          0.3890     4.1360    -0.6940 h2         1 006       0.085200
     76 H50A        -0.2840     2.7180     0.1220 h2         1 006       0.085200
     77 H52          3.3750     5.7170     0.4980 hc         1 006       0.050033
     78 H52A         4.3530     4.7420    -0.6020 hc         1 006       0.050033
     79 H52B         2.6350     4.9780    -0.9230 hc         1 006       0.050033
     80 H53          3.9230     2.5770     2.4510 hc         1 006       0.050033
     81 H53A         5.1110     3.3040     1.3620 hc         1 006       0.050033
     82 H53B         4.1410     4.3240     2.4150 hc         1 006       0.050033
     83 H54          3.7000     2.4510    -1.0140 h1         1 006       0.093700
     84 O21          2.1950     0.9570    -2.4100 o          1 006      -0.616100
     85 H40         -9.8410    -1.3600     1.2470 ha         1 006       0.114000
     86 C44         -7.6910     1.8190    -1.4050 c3         1 006      -0.046300
@<TRIPOS>BOND
     1     1     2 1   
     2     1    33 1   
     3     1    44 1   
     4     2     4 1   
     5     2    11 1   
     6     2    45 1   
     7     3    11 1   
     8     3    46 1   
     9     4     5 1   
    10     4    47 1   
    11     4    48 1   
    12     5     6 ar  
    13     5    10 ar  
    14     6     7 ar  
    15     6    49 1   
    16     7     8 ar  
    17     7    50 1   
    18     8     9 ar  
    19     8    51 1   
    20     9    10 ar  
    21     9    52 1   
    22    10    53 1   
    23    11    12 1   
    24    11    54 1   
    25    12    36 1   
    26    12    84 2   
    27    13    15 1   
    28    13    43 1   
    29    13    55 1   
    30    14    19 1   
    31    14    56 1   
    32    15    16 1   
    33    15    19 1   
    34    15    57 1   
    35    16    17 ar  
    36    16    20 ar  
    37    17    18 ar  
    38    17    58 1   
    39    18    22 ar  
    40    18    59 1   
    41    19    23 1   
    42    19    60 1   
    43    20    21 ar  
    44    20    23 1   
    45    21    22 ar  
    46    21    61 1   
    47    22    62 1   
    48    23    63 1   
    49    23    64 1   
    50    24    26 ar  
    51    24    32 ar  
    52    24    85 1   
    53    25    33 2   
    54    26    28 ar  
    55    26    65 1   
    56    27    30 1   
    57    27    34 1   
    58    28    29 1   
    59    28    30 ar  
    60    29    66 1   
    61    29    67 1   
    62    29    68 1   
    63    30    31 ar  
    64    31    32 ar  
    65    31    86 1   
    66    32    72 1   
    67    33    34 1   
    68    34    73 1   
    69    34    74 1   
    70    35    36 1   
    71    35    38 1   
    72    35    75 1   
    73    35    76 1   
    74    36    42 1   
    75    37    43 2   
    76    38    39 1   
    77    39    40 1   
    78    39    41 1   
    79    39    42 1   
    80    40    77 1   
    81    40    78 1   
    82    40    79 1   
    83    41    80 1   
    84    41    81 1   
    85    41    82 1   
    86    42    43 1   
    87    42    83 1   
    88    69    86 1   
    89    70    86 1   
    90    71    86 1   
@<TRIPOS>SUBSTRUCTURE
     1 006         1 TEMP              0 ****  ****    0 ROOT
