@<TRIPOS>MOLECULE
007
   30    31     1     0     0
SMALL
No Charge or Current Charge


@<TRIPOS>ATOM
      1 C1          -1.3750    -0.5090     1.3850 c5         1 007      -0.071400
      2 C2          -1.3170    -0.1110     2.8900 c5         1 007      -0.079900
      3 C3           0.0440    -0.1250     0.8530 c5         1 007      -0.002700
      4 C4          -0.3080     1.0780     2.9510 c5         1 007      -0.079900
      5 C5           0.1110     1.3120     1.4710 c5         1 007      -0.071400
      6 C6          -0.0620    -0.0270    -0.6940 ca         1 007      -0.065300
      7 C7          -0.6360    -1.0910    -1.4310 ca         1 007      -0.109000
      8 C8           0.4550     1.0730    -1.4260 ca         1 007      -0.109000
      9 C9          -0.7290    -1.0430    -2.8320 ca         1 007      -0.113500
     10 C10          0.3620     1.1220    -2.8280 ca         1 007      -0.113500
     11 C11         -0.2350     0.0670    -3.5330 ca         1 007      -0.114000
     12 C12          1.1770    -1.1040     1.3060 c3         1 007       0.161800
     13 N13          2.5090    -0.7010     0.8050 n8         1 007      -1.005200
     14 H1C1        -2.1650     0.0520     0.8690 hc         1 007       0.049700
     15 H1C2        -1.6090    -1.5720     1.2630 hc         1 007       0.049700
     16 H2C1        -2.3070     0.1690     3.2690 hc         1 007       0.040450
     17 H2C2        -0.9700    -0.9470     3.5080 hc         1 007       0.040450
     18 H4C1        -0.7570     1.9770     3.3890 hc         1 007       0.040450
     19 H4C2         0.5580     0.8240     3.5730 hc         1 007       0.040450
     20 H5C1         1.1060     1.7650     1.4010 hc         1 007       0.049700
     21 H5C2        -0.5920     2.0000     0.9840 hc         1 007       0.049700
     22 H7          -1.0110    -1.9740    -0.9190 ha         1 007       0.115000
     23 H8           0.9440     1.9020    -0.9210 ha         1 007       0.115000
     24 H9          -1.1800    -1.8700    -3.3760 ha         1 007       0.110000
     25 H10          0.7590     1.9780    -3.3680 ha         1 007       0.110000
     26 H11         -0.3050     0.1040    -4.6180 ha         1 007       0.111000
     27 H121         0.9530    -2.1050     0.9140 h1         1 007       0.028700
     28 H122         1.2200    -1.1730     2.4010 h1         1 007       0.028700
     29 H131         3.1740    -1.4660     0.9710 hn         1 007       0.396000
     30 H132         2.4600    -0.6360    -0.2180 hn         1 007       0.396000
@<TRIPOS>BOND
     1     1     2 1   
     2     1     3 1   
     3     1    14 1   
     4     1    15 1   
     5     2     4 1   
     6     2    16 1   
     7     2    17 1   
     8     3     5 1   
     9     3     6 1   
    10     3    12 1   
    11     4     5 1   
    12     4    18 1   
    13     4    19 1   
    14     5    20 1   
    15     5    21 1   
    16     6     7 ar  
    17     6     8 ar  
    18     7     9 ar  
    19     7    22 1   
    20     8    10 ar  
    21     8    23 1   
    22     9    11 ar  
    23     9    24 1   
    24    10    11 ar  
    25    10    25 1   
    26    11    26 1   
    27    12    13 1   
    28    12    27 1   
    29    12    28 1   
    30    13    29 1   
    31    13    30 1   
@<TRIPOS>SUBSTRUCTURE
     1 007         1 TEMP              0 ****  ****    0 ROOT
