@<TRIPOS>MOLECULE
007
   30    31     1     0     0
SMALL
abcg2


@<TRIPOS>ATOM
      1 C1          -1.2500    -0.6770     1.5070 c5         1 007      -0.071400
      2 C2          -1.1470    -0.2030     2.9510 c5         1 007      -0.079900
      3 C3           0.0190    -0.1220     0.8280 c5         1 007      -0.002700
      4 C4          -0.6250     1.2280     2.8130 c5         1 007      -0.079900
      5 C5           0.2450     1.2360     1.5400 c5         1 007      -0.071400
      6 C6          -0.1070    -0.0150    -0.6770 ca         1 007      -0.065300
      7 C7          -0.8860    -0.9220    -1.3980 ca         1 007      -0.109000
      8 C8           0.6020     0.9460    -1.3990 ca         1 007      -0.109000
      9 C9          -0.9710    -0.8580    -2.7830 ca         1 007      -0.113500
     10 C10          0.5220     1.0130    -2.7840 ca         1 007      -0.113500
     11 C11         -0.2690     0.1120    -3.4850 ca         1 007      -0.114000
     12 C12          1.1810    -1.0930     1.1370 c3         1 007       0.161800
     13 N13          2.4590    -0.6240     0.6370 n8         1 007      -1.005200
     14 H1C1        -2.1400    -0.2430     1.0390 hc         1 007       0.049700
     15 H1C2        -1.3400    -1.7620     1.4170 hc         1 007       0.049700
     16 H2C1        -2.0960    -0.2580     3.4860 hc         1 007       0.040450
     17 H2C2        -0.4380    -0.8220     3.5070 hc         1 007       0.040450
     18 H4C1        -1.4700     1.9080     2.6860 hc         1 007       0.040450
     19 H4C2        -0.0850     1.5650     3.6990 hc         1 007       0.040450
     20 H5C1         1.3040     1.3750     1.7580 hc         1 007       0.049700
     21 H5C2        -0.0470     2.0690     0.8980 hc         1 007       0.049700
     22 H7          -1.4400    -1.6930    -0.8760 ha         1 007       0.115000
     23 H8           1.2300     1.6580    -0.8780 ha         1 007       0.115000
     24 H9          -1.5870    -1.5710    -3.3160 ha         1 007       0.110000
     25 H10          1.0810     1.7720    -3.3170 ha         1 007       0.110000
     26 H11         -0.3360     0.1660    -4.5640 ha         1 007       0.111000
     27 H121         0.8960    -2.0840     0.7550 h1         1 007       0.028700
     28 H122         1.2700    -1.1950     2.2210 h1         1 007       0.028700
     29 H131         3.1980    -1.2070     1.0080 hn         1 007       0.396000
     30 H132         2.5030    -0.7310    -0.3680 hn         1 007       0.396000
@<TRIPOS>BOND
     1     1     2 1   
     2     1     3 1   
     3     1    14 1   
     4     1    15 1   
     5     2     4 1   
     6     2    16 1   
     7     2    17 1   
     8     3     5 1   
     9     3     6 1   
    10     3    12 1   
    11     4     5 1   
    12     4    18 1   
    13     4    19 1   
    14     5    20 1   
    15     5    21 1   
    16     6     7 ar  
    17     6     8 ar  
    18     7     9 ar  
    19     7    22 1   
    20     8    10 ar  
    21     8    23 1   
    22     9    11 ar  
    23     9    24 1   
    24    10    11 ar  
    25    10    25 1   
    26    11    26 1   
    27    12    13 1   
    28    12    27 1   
    29    12    28 1   
    30    13    29 1   
    31    13    30 1   
@<TRIPOS>SUBSTRUCTURE
     1 007         1 TEMP              0 ****  ****    0 ROOT
