@<TRIPOS>MOLECULE
008
   48    50     1     0     0
SMALL
bcc


@<TRIPOS>ATOM
      1 F7          -0.4590     1.9220    -4.8520 f          1 008      -0.147900
      2 C1          -0.6690     0.6160    -5.1050 ca         1 008       0.156900
      3 C2          -0.4380     0.1630    -6.3890 ca         1 008      -0.170000
      4 C3          -0.6570    -1.1780    -6.6760 ca         1 008      -0.104000
      5 C4          -1.1050    -2.0330    -5.6780 ca         1 008      -0.145000
      6 C5          -1.3320    -1.5410    -4.4000 ca         1 008      -0.104000
      7 C6          -1.1180    -0.2020    -4.0800 ca         1 008      -0.098300
      8 C8          -1.3350     0.2960    -2.6820 c3         1 008      -0.022100
      9 C9          -0.1160     0.0540    -1.7830 c3         1 008       0.181500
     10 N10          1.0500     0.7110    -2.3420 n8         1 008      -0.884800
     11 C11         -0.4630     0.4790    -0.3520 c3         1 008      -0.198400
     12 C12          0.6200     0.1260     0.6440 c          1 008       0.668100
     13 O13          1.4780    -0.7060     0.3860 o          1 008      -0.597100
     14 N14          0.6250     0.7810     1.8340 n          1 008      -0.437800
     15 C19         -0.5590     1.3750     2.4200 c6         1 008       0.137300
     16 C18         -1.1730     0.4440     3.4400 ca         1 008      -0.118300
     17 C20         -2.4870     0.6490     3.8530 ca         1 008      -0.119000
     18 C21         -3.0760    -0.1840     4.7910 ca         1 008      -0.125000
     19 C22         -2.3460    -1.2380     5.3270 ca         1 008      -0.119000
     20 C17         -0.4340    -0.6100     3.9810 ca         1 008      -0.069300
     21 C23         -1.0380    -1.4430     4.9220 ca         1 008      -0.124000
     22 C16          0.9980    -0.8650     3.5700 c6         1 008      -0.059100
     23 C15          1.5670     0.3520     2.8520 c6         1 008       0.011700
     24 C24          2.9900     0.2770     2.3010 c          1 008       0.696100
     25 O25          3.4370     1.2020     1.6410 o          1 008      -0.594100
     26 N26          3.7250    -0.7690     2.6970 nt         1 008      -0.663000
     27 H2          -0.0930     0.8480    -7.1530 ha         1 008       0.147000
     28 H3          -0.4790    -1.5470    -7.6770 ha         1 008       0.132000
     29 H4          -1.2820    -3.0780    -5.8940 ha         1 008       0.133000
     30 H5          -1.6850    -2.2090    -3.6230 ha         1 008       0.128000
     31 H8C1        -2.1940    -0.2230    -2.2500 hc         1 008       0.047700
     32 H8C2        -1.5860     1.3600    -2.6770 hc         1 008       0.047700
     33 H9           0.0840    -1.0210    -1.7860 h1         1 008       0.077700
     34 H101         0.9320     1.7170    -2.3110 hn         1 008       0.352300
     35 H102         1.8640     0.5010    -1.7790 hn         1 008       0.352300
     36 H111        -0.6680     1.5530    -0.3360 hc         1 008       0.064700
     37 H112        -1.3890    -0.0140    -0.0320 hc         1 008       0.064700
     38 H191        -0.2820     2.3220     2.8930 h1         1 008       0.067200
     39 H192        -1.2870     1.6170     1.6500 h1         1 008       0.067200
     40 H20         -3.0570     1.4680     3.4300 ha         1 008       0.131000
     41 H21         -4.1000    -0.0150     5.0980 ha         1 008       0.135000
     42 H22         -2.7960    -1.8960     6.0590 ha         1 008       0.135000
     43 H23         -0.4650    -2.2600     5.3450 ha         1 008       0.131000
     44 H161         1.5830    -1.0930     4.4650 hc         1 008       0.063700
     45 H162         1.0430    -1.7470     2.9250 hc         1 008       0.063700
     46 H15          1.6190     1.1700     3.5810 h1         1 008       0.080700
     47 H261         4.6760    -0.8570     2.3770 hn         1 008       0.313500
     48 H262         3.3250    -1.5730     3.1470 hn         1 008       0.313500
@<TRIPOS>BOND
     1     1     2 1   
     2     2     3 ar  
     3     2     7 ar  
     4     3     4 ar  
     5     3    27 1   
     6     4     5 ar  
     7     4    28 1   
     8     5     6 ar  
     9     5    29 1   
    10     6     7 ar  
    11     6    30 1   
    12     7     8 1   
    13     8     9 1   
    14     8    31 1   
    15     8    32 1   
    16     9    10 1   
    17     9    11 1   
    18     9    33 1   
    19    10    34 1   
    20    10    35 1   
    21    11    12 1   
    22    11    36 1   
    23    11    37 1   
    24    12    13 2   
    25    12    14 1   
    26    14    15 1   
    27    14    23 1   
    28    15    16 1   
    29    15    38 1   
    30    15    39 1   
    31    16    17 ar  
    32    16    20 ar  
    33    17    18 ar  
    34    17    40 1   
    35    18    19 ar  
    36    18    41 1   
    37    19    21 ar  
    38    19    42 1   
    39    20    21 ar  
    40    20    22 1   
    41    21    43 1   
    42    22    23 1   
    43    22    44 1   
    44    22    45 1   
    45    23    24 1   
    46    23    46 1   
    47    24    25 2   
    48    24    26 1   
    49    26    47 1   
    50    26    48 1   
@<TRIPOS>SUBSTRUCTURE
     1 008         1 TEMP              0 ****  ****    0 ROOT
