@<TRIPOS>MOLECULE
008
   48    50     1     0     0
SMALL
No Charge or Current Charge


@<TRIPOS>ATOM
      1 F7          -0.8110     2.1100    -5.1580 f          1 008      -0.183000
      2 C1          -0.8230     0.7810    -5.4120 ca         1 008       0.192000
      3 C2          -0.5870     0.3430    -6.7260 ca         1 008      -0.152000
      4 C3          -0.5990    -1.0300    -7.0240 ca         1 008      -0.086000
      5 C4          -0.8490    -1.9630    -6.0030 ca         1 008      -0.127000
      6 C5          -1.0860    -1.5250    -4.6880 ca         1 008      -0.086000
      7 C6          -1.0740    -0.1490    -4.3780 ca         1 008      -0.098300
      8 C8          -1.3390     0.2990    -2.9380 c3         1 008      -0.022100
      9 C9          -0.1540     0.0240    -1.9740 c3         1 008       0.181500
     10 N10          1.0560     0.7500    -2.4030 n8         1 008      -0.995200
     11 C11         -0.4980     0.4050    -0.5190 c3         1 008      -0.198400
     12 C12          0.4640    -0.1300     0.5570 c          1 008       0.601100
     13 O13          1.1940    -1.0870     0.3270 o          1 008      -0.597100
     14 N14          0.4990     0.5260     1.8110 n          1 008      -0.370800
     15 C19         -0.6990     1.1700     2.4080 c6         1 008       0.137300
     16 C18         -1.2250     0.3950     3.6250 ca         1 008      -0.118300
     17 C20         -2.5360     0.6370     4.0810 ca         1 008      -0.101000
     18 C21         -3.0420    -0.0620     5.1900 ca         1 008      -0.107000
     19 C22         -2.2410    -1.0070     5.8490 ca         1 008      -0.101000
     20 C17         -0.4150    -0.5550     4.2940 ca         1 008      -0.069300
     21 C23         -0.9320    -1.2530     5.4020 ca         1 008      -0.106000
     22 C16          1.0150    -0.8470     3.8220 c6         1 008      -0.059100
     23 C15          1.5440     0.2340     2.8410 c6         1 008       0.011700
     24 C24          3.0050     0.0450     2.3160 c          1 008       0.629100
     25 O25          3.4780     0.7290     1.4210 o          1 008      -0.594100
     26 N26          3.7960    -0.8550     2.9480 nt         1 008      -0.596000
     27 H2          -0.3960     1.0690    -7.5120 ha         1 008       0.129000
     28 H3          -0.4170    -1.3710    -8.0410 ha         1 008       0.114000
     29 H4          -0.8600    -3.0260    -6.2310 ha         1 008       0.115000
     30 H5          -1.2800    -2.2580    -3.9070 ha         1 008       0.110000
     31 H8C1        -2.2230    -0.2310    -2.5630 hc         1 008       0.047700
     32 H8C2        -1.5990     1.3630    -2.8960 hc         1 008       0.047700
     33 H9           0.0560    -1.0560    -2.0140 h1         1 008       0.077700
     34 H101         0.9050     1.7570    -2.2840 hn         1 008       0.407500
     35 H102         1.8180     0.5370    -1.7500 hn         1 008       0.407500
     36 H111        -0.6220     1.4870    -0.3960 hc         1 008       0.064700
     37 H112        -1.4890     0.0210    -0.2540 hc         1 008       0.064700
     38 H191        -0.4350     2.1900     2.7230 h1         1 008       0.067200
     39 H192        -1.5120     1.2640     1.6770 h1         1 008       0.067200
     40 H20         -3.1640     1.3670     3.5760 ha         1 008       0.113000
     41 H21         -4.0550     0.1300     5.5370 ha         1 008       0.117000
     42 H22         -2.6340    -1.5500     6.7070 ha         1 008       0.117000
     43 H23         -0.3190    -1.9890     5.9170 ha         1 008       0.113000
     44 H161         1.6760    -0.9140     4.6980 hc         1 008       0.063700
     45 H162         1.0360    -1.8310     3.3330 hc         1 008       0.063700
     46 H15          1.6440     1.1470     3.4450 h1         1 008       0.080700
     47 H261         4.7490    -0.9730     2.6380 hn         1 008       0.313500
     48 H262         3.4300    -1.4160     3.7020 hn         1 008       0.313500
@<TRIPOS>BOND
     1     1     2 1   
     2     2     3 ar  
     3     2     7 ar  
     4     3     4 ar  
     5     3    27 1   
     6     4     5 ar  
     7     4    28 1   
     8     5     6 ar  
     9     5    29 1   
    10     6     7 ar  
    11     6    30 1   
    12     7     8 1   
    13     8     9 1   
    14     8    31 1   
    15     8    32 1   
    16     9    10 1   
    17     9    11 1   
    18     9    33 1   
    19    10    34 1   
    20    10    35 1   
    21    11    12 1   
    22    11    36 1   
    23    11    37 1   
    24    12    13 2   
    25    12    14 1   
    26    14    15 1   
    27    14    23 1   
    28    15    16 1   
    29    15    38 1   
    30    15    39 1   
    31    16    17 ar  
    32    16    20 ar  
    33    17    18 ar  
    34    17    40 1   
    35    18    19 ar  
    36    18    41 1   
    37    19    21 ar  
    38    19    42 1   
    39    20    21 ar  
    40    20    22 1   
    41    21    43 1   
    42    22    23 1   
    43    22    44 1   
    44    22    45 1   
    45    23    24 1   
    46    23    46 1   
    47    24    25 2   
    48    24    26 1   
    49    26    47 1   
    50    26    48 1   
@<TRIPOS>SUBSTRUCTURE
     1 008         1 TEMP              0 ****  ****    0 ROOT
