@<TRIPOS>MOLECULE
009
   88    92     1     0     0
SMALL
abcg2


@<TRIPOS>ATOM
      1 C           -1.6140     0.4180     1.2720 c          1 009       0.616100
      2 O           -1.5800    -0.0240     2.4110 o          1 009      -0.612100
      3 N           -0.8200     0.0240     0.2750 ns         1 009      -0.477900
      4 CA           0.1960    -0.9960     0.3940 c3         1 009       0.082700
      5 CB          -0.2360    -2.2690    -0.3530 c3         1 009      -0.048100
      6 CG          -1.5530    -2.7800     0.1560 ca         1 009      -0.082300
      7 CD1         -2.7480    -2.4000    -0.4470 ca         1 009      -0.101500
      8 CD2         -1.6070    -3.6000     1.2800 ca         1 009      -0.101500
      9 CE1         -3.9690    -2.8210     0.0620 ca         1 009      -0.110000
     10 CE2         -2.8240    -4.0300     1.7910 ca         1 009      -0.110000
     11 CZ          -4.0110    -3.6370     1.1850 ca         1 009      -0.108000
     12 C1           1.5360    -0.4160    -0.0750 c3         1 009       0.146300
     13 OG           1.4730     0.0430    -1.4110 oh         1 009      -0.655000
     14 C2           2.7030    -1.3670     0.1460 c3         1 009       0.129800
     15 N2           3.9610    -0.6700    -0.0230 n7         1 009      -0.859400
     16 C20          5.1130    -1.5330     0.1500 c3         1 009       0.205100
     17 C21          6.4000    -0.7630     0.0070 ca         1 009      -0.049300
     18 C22          6.6050     0.4070     0.7360 ca         1 009      -0.140000
     19 C23          7.8140     1.0730     0.6070 ca         1 009      -0.072000
     20 C24          8.8140     0.6090    -0.2340 ca         1 009      -0.189000
     21 C25          8.6210    -0.5590    -0.9950 ca         1 009       0.337000
     22 C26          7.3910    -1.2320    -0.8430 ca         1 009      -0.189000
     23 N27          9.5810    -1.0190    -1.8550 nh         1 009      -0.837400
     24 C28         10.8690    -0.3720    -1.9030 c3         1 009       0.223100
     25 C29          9.3860    -2.2690    -2.5490 c3         1 009       0.223100
     26 C30         -2.6160     1.5190     0.9270 c5         1 009       0.003400
     27 N31         -2.5780     1.9250    -0.4640 ns         1 009      -0.487900
     28 C32         -3.8510     2.1520    -0.9440 c          1 009       0.586000
     29 O33         -4.1220     2.6960    -2.0000 o          1 009      -0.573000
     30 N34         -4.7260     1.6600    -0.0320 n          1 009      -0.422800
     31 C35         -4.0520     0.9620     1.0360 c5         1 009       0.098000
     32 C36         -6.1410     1.5220    -0.2680 c3         1 009       0.164300
     33 C41         -6.5430     0.1470    -0.7440 ca         1 009      -0.123300
     34 C42         -7.2790    -0.7020     0.0750 ca         1 009      -0.095500
     35 C43         -6.1860    -0.2890    -2.0190 ca         1 009      -0.095500
     36 C44         -6.5680    -1.5450    -2.4680 ca         1 009      -0.116000
     37 C45         -7.6650    -1.9610    -0.3720 ca         1 009      -0.116000
     38 C46         -7.3120    -2.3830    -1.6460 ca         1 009      -0.106000
     39 C51         -2.4160     2.7160     1.8830 c3         1 009      -0.044100
     40 C52          1.2640     3.6640     1.8570 ca         1 009      -0.107500
     41 C53          1.2620     4.7780     1.0260 ca         1 009      -0.103000
     42 C54          0.0640     5.2350     0.4960 ca         1 009      -0.107500
     43 C55         -1.1230     4.5760     0.7910 ca         1 009      -0.108000
     44 C56         -1.1340     3.4540     1.6180 ca         1 009      -0.099300
     45 C57          0.0770     3.0100     2.1520 ca         1 009      -0.108000
     46 HN          -0.9840     0.4150    -0.6410 hn         1 009       0.340500
     47 HA           0.2940    -1.2330     1.4550 h1         1 009       0.089700
     48 HB          -0.3140    -2.0620    -1.4240 hc         1 009       0.049700
     49 HBA          0.5350    -3.0330    -0.2310 hc         1 009       0.049700
     50 HD1         -2.7290    -1.7640    -1.3250 ha         1 009       0.110000
     51 HD2         -0.6860    -3.9080     1.7630 ha         1 009       0.110000
     52 HE1         -4.8890    -2.5110    -0.4170 ha         1 009       0.116500
     53 HE2         -2.8460    -4.6710     2.6630 ha         1 009       0.116500
     54 HZ          -4.9620    -3.9660     1.5830 ha         1 009       0.111000
     55 H1           1.7220     0.4760     0.5310 h1         1 009       0.100700
     56 HOG          1.4920    -0.7160    -2.0050 ho         1 009       0.436000
     57 H2           2.6540    -1.7560     1.1680 h1         1 009       0.033700
     58 H2A          2.6110    -2.2430    -0.5210 h1         1 009       0.033700
     59 HN2          3.9940    -0.2630    -0.9500 hn         1 009       0.423000
     60 H20          5.0610    -1.9630     1.1560 h1         1 009       0.033700
     61 H20A         5.1180    -2.3880    -0.5440 h1         1 009       0.033700
     62 H22          5.8320     0.7860     1.3910 ha         1 009       0.125000
     63 H23          7.9910     1.9790     1.1740 ha         1 009       0.107000
     64 H24          9.7390     1.1650    -0.2930 ha         1 009       0.110000
     65 H26          7.1950    -2.1410    -1.3970 ha         1 009       0.106000
     66 H28         11.4020    -0.4170    -0.9470 h1         1 009       0.033367
     67 H28A        11.4890    -0.8600    -2.6500 h1         1 009       0.033367
     68 H28B        10.7850     0.6800    -2.1860 h1         1 009       0.033367
     69 H29          8.4940    -2.2470    -3.1790 h1         1 009       0.033367
     70 H29A        10.2370    -2.4560    -3.1990 h1         1 009       0.033367
     71 H29B         9.2910    -3.1220    -1.8690 h1         1 009       0.033367
     72 HN31        -1.8630     2.5760    -0.7620 hn         1 009       0.327500
     73 H35         -4.0850    -0.1230     0.8850 h1         1 009       0.067700
     74 H35A        -4.4960     1.1850     2.0070 h1         1 009       0.067700
     75 H36         -6.6680     1.7640     0.6580 h1         1 009       0.067200
     76 H36A        -6.4280     2.2740    -1.0030 h1         1 009       0.067200
     77 H42         -7.5590    -0.3770     1.0700 ha         1 009       0.120000
     78 H43         -5.6130     0.3620    -2.6690 ha         1 009       0.120000
     79 H44         -6.2880    -1.8680    -3.4620 ha         1 009       0.115000
     80 H45         -8.2390    -2.6100     0.2770 ha         1 009       0.115000
     81 H46         -7.6130    -3.3620    -1.9960 ha         1 009       0.114000
     82 H51         -3.2670     3.3890     1.7570 hc         1 009       0.070700
     83 H51A        -2.4480     2.3480     2.9090 hc         1 009       0.070700
     84 H53          2.1890     5.2890     0.8000 ha         1 009       0.115000
     85 H54          0.0500     6.1060    -0.1450 ha         1 009       0.116000
     86 H55         -2.0560     4.9490     0.3840 ha         1 009       0.119000
     87 H57          0.0890     2.1510     2.8100 ha         1 009       0.119000
     88 H52          2.1940     3.3040     2.2800 ha         1 009       0.116000
@<TRIPOS>BOND
     1     1     2 2   
     2     1     3 1   
     3     1    26 1   
     4     3     4 1   
     5     3    46 1   
     6     4     5 1   
     7     4    12 1   
     8     4    47 1   
     9     5     6 1   
    10     5    48 1   
    11     5    49 1   
    12     6     7 ar  
    13     6     8 ar  
    14     7     9 ar  
    15     7    50 1   
    16     8    10 ar  
    17     8    51 1   
    18     9    11 ar  
    19     9    52 1   
    20    10    11 ar  
    21    10    53 1   
    22    11    54 1   
    23    12    13 1   
    24    12    14 1   
    25    12    55 1   
    26    13    56 1   
    27    14    15 1   
    28    14    57 1   
    29    14    58 1   
    30    15    16 1   
    31    15    59 1   
    32    16    17 1   
    33    16    60 1   
    34    16    61 1   
    35    17    18 ar  
    36    17    22 ar  
    37    18    19 ar  
    38    18    62 1   
    39    19    20 ar  
    40    19    63 1   
    41    20    21 ar  
    42    20    64 1   
    43    21    22 ar  
    44    21    23 1   
    45    22    65 1   
    46    23    24 1   
    47    23    25 1   
    48    24    66 1   
    49    24    67 1   
    50    24    68 1   
    51    25    69 1   
    52    25    70 1   
    53    25    71 1   
    54    26    27 1   
    55    26    31 1   
    56    26    39 1   
    57    27    28 1   
    58    27    72 1   
    59    28    29 2   
    60    28    30 1   
    61    30    31 1   
    62    30    32 1   
    63    31    73 1   
    64    31    74 1   
    65    32    33 1   
    66    32    75 1   
    67    32    76 1   
    68    33    34 ar  
    69    33    35 ar  
    70    34    37 ar  
    71    34    77 1   
    72    35    36 ar  
    73    35    78 1   
    74    36    38 ar  
    75    36    79 1   
    76    37    38 ar  
    77    37    80 1   
    78    38    81 1   
    79    39    44 1   
    80    39    82 1   
    81    39    83 1   
    82    40    41 ar  
    83    40    45 ar  
    84    40    88 1   
    85    41    42 ar  
    86    41    84 1   
    87    42    43 ar  
    88    42    85 1   
    89    43    44 ar  
    90    43    86 1   
    91    44    45 ar  
    92    45    87 1   
@<TRIPOS>SUBSTRUCTURE
     1 009         1 TEMP              0 ****  ****    0 ROOT
