@<TRIPOS>MOLECULE
009
   88    92     1     0     0
SMALL
No Charge or Current Charge


@<TRIPOS>ATOM
      1 C           -1.6110     0.5140     1.5470 c          1 009       0.616100
      2 O           -1.6420     0.1320     2.7100 o          1 009      -0.612100
      3 N           -0.6880     0.0460     0.6350 ns         1 009      -0.477900
      4 CA           0.3100    -0.9990     0.8940 c3         1 009       0.082700
      5 CB          -0.1060    -2.3230     0.1950 c3         1 009      -0.048100
      6 CG          -1.5660    -2.6860     0.4500 ca         1 009      -0.082300
      7 CD1         -2.5410    -2.4390    -0.5360 ca         1 009      -0.101500
      8 CD2         -1.9560    -3.2370     1.6860 ca         1 009      -0.101500
      9 CE1         -3.8900    -2.7430    -0.2890 ca         1 009      -0.110000
     10 CE2         -3.3070    -3.5390     1.9330 ca         1 009      -0.110000
     11 CZ          -4.2740    -3.2920     0.9450 ca         1 009      -0.108000
     12 C1           1.7390    -0.4850     0.5370 c3         1 009       0.146300
     13 OG           1.8160    -0.1240    -0.8630 oh         1 009      -0.655000
     14 C2           2.8690    -1.4920     0.9000 c3         1 009       0.129800
     15 N2           4.2060    -0.8980     0.6800 n7         1 009      -0.859400
     16 C20          5.3430    -1.8210     0.8440 c3         1 009       0.205100
     17 C21          6.6590    -1.1130     0.5430 ca         1 009      -0.049300
     18 C22          7.3440    -0.4260     1.5610 ca         1 009      -0.140000
     19 C23          8.5580     0.2210     1.2840 ca         1 009      -0.072000
     20 C24          9.0920     0.1850    -0.0150 ca         1 009      -0.189000
     21 C25          8.4210    -0.4950    -1.0520 ca         1 009       0.337000
     22 C26          7.2020    -1.1410    -0.7580 ca         1 009      -0.189000
     23 N27          8.9610    -0.5300    -2.3640 nh         1 009      -0.837400
     24 C28         10.4210    -0.4340    -2.6030 c3         1 009       0.223100
     25 C29          8.0910    -0.6620    -3.5560 c3         1 009       0.223100
     26 C30         -2.5740     1.5850     0.9030 c5         1 009       0.003400
     27 N31         -2.3450     1.7380    -0.5620 ns         1 009      -0.487900
     28 C32         -3.5080     1.7070    -1.2580 c          1 009       0.586000
     29 O33         -3.6220     2.0040    -2.4340 o          1 009      -0.573000
     30 N34         -4.5190     1.3100    -0.4090 n          1 009      -0.422800
     31 C35         -4.0340     0.9930     0.9420 c5         1 009       0.098000
     32 C36         -5.9310     1.2930    -0.8280 c3         1 009       0.164300
     33 C41         -6.4490    -0.0990    -1.1630 ca         1 009      -0.123300
     34 C42         -7.0530    -0.8920    -0.1660 ca         1 009      -0.095500
     35 C43         -6.3440    -0.5980    -2.4760 ca         1 009      -0.095500
     36 C44         -6.8430    -1.8740    -2.7910 ca         1 009      -0.116000
     37 C45         -7.5510    -2.1680    -0.4820 ca         1 009      -0.116000
     38 C46         -7.4480    -2.6590    -1.7940 ca         1 009      -0.106000
     39 C51         -2.4440     2.9480     1.6350 c3         1 009      -0.044100
     40 C52          1.2480     3.9390     2.0120 ca         1 009      -0.107500
     41 C53          1.3990     4.8650     0.9660 ca         1 009      -0.103000
     42 C54          0.3040     5.1780     0.1430 ca         1 009      -0.107500
     43 C55         -0.9410     4.5630     0.3640 ca         1 009      -0.108000
     44 C56         -1.0980     3.6310     1.4080 ca         1 009      -0.099300
     45 C57          0.0030     3.3250     2.2330 ca         1 009      -0.108000
     46 HN          -0.7530     0.4240    -0.3000 hn         1 009       0.340500
     47 HA           0.3130    -1.2010     1.9740 h1         1 009       0.089700
     48 HB           0.0670    -2.2370    -0.8840 hc         1 009       0.049700
     49 HBA          0.5400    -3.1380     0.5430 hc         1 009       0.049700
     50 HD1         -2.2580    -2.0030    -1.4910 ha         1 009       0.110000
     51 HD2         -1.2130    -3.4240     2.4590 ha         1 009       0.110000
     52 HE1         -4.6350    -2.5490    -1.0540 ha         1 009       0.116500
     53 HE2         -3.6030    -3.9620     2.8900 ha         1 009       0.116500
     54 HZ          -5.3200    -3.5230     1.1350 ha         1 009       0.111000
     55 H1           1.9080     0.4120     1.1510 h1         1 009       0.100700
     56 HOG          1.8010    -0.9570    -1.3800 ho         1 009       0.436000
     57 H2           2.7590    -1.7910     1.9520 h1         1 009       0.033700
     58 H2A          2.7530    -2.3960     0.2870 h1         1 009       0.033700
     59 HN2          4.2320    -0.5310    -0.2790 hn         1 009       0.423000
     60 H20          5.3720    -2.2140     1.8690 h1         1 009       0.033700
     61 H20A         5.2370    -2.6810     0.1680 h1         1 009       0.033700
     62 H22          6.9330    -0.3930     2.5670 ha         1 009       0.125000
     63 H23          9.0830     0.7530     2.0740 ha         1 009       0.107000
     64 H24         10.0270     0.7010    -0.2120 ha         1 009       0.110000
     65 H26          6.6720    -1.6810    -1.5360 ha         1 009       0.106000
     66 H28         10.9770    -0.9520    -1.8100 h1         1 009       0.033367
     67 H28A        10.6920    -0.9030    -3.5580 h1         1 009       0.033367
     68 H28B        10.7380     0.6180    -2.6280 h1         1 009       0.033367
     69 H29          7.1480    -0.1190    -3.4080 h1         1 009       0.033367
     70 H29A         8.5800    -0.2410    -4.4450 h1         1 009       0.033367
     71 H29B         7.8640    -1.7190    -3.7520 h1         1 009       0.033367
     72 HN31        -1.5480     2.1900    -0.9960 hn         1 009       0.327500
     73 H35         -4.0320    -0.0950     1.0950 h1         1 009       0.067700
     74 H35A        -4.6520     1.4500     1.7250 h1         1 009       0.067700
     75 H36         -6.5380     1.7170    -0.0180 h1         1 009       0.067200
     76 H36A        -6.0660     1.9490    -1.6980 h1         1 009       0.067200
     77 H42         -7.1370    -0.5190     0.8520 ha         1 009       0.120000
     78 H43         -5.8770     0.0040    -3.2520 ha         1 009       0.120000
     79 H44         -6.7600    -2.2540    -3.8070 ha         1 009       0.115000
     80 H45         -8.0180    -2.7750     0.2910 ha         1 009       0.115000
     81 H46         -7.8340    -3.6470    -2.0380 ha         1 009       0.114000
     82 H51         -3.2480     3.6150     1.3010 hc         1 009       0.070700
     83 H51A        -2.6140     2.8080     2.7100 hc         1 009       0.070700
     84 H53          2.3620     5.3400     0.7950 ha         1 009       0.115000
     85 H54          0.4200     5.8950    -0.6660 ha         1 009       0.116000
     86 H55         -1.7820     4.8090    -0.2810 ha         1 009       0.119000
     87 H57         -0.1030     2.6090     3.0450 ha         1 009       0.119000
     88 H52          2.0940     3.6960     2.6500 ha         1 009       0.116000
@<TRIPOS>BOND
     1     1     2 2   
     2     1     3 1   
     3     1    26 1   
     4     3     4 1   
     5     3    46 1   
     6     4     5 1   
     7     4    12 1   
     8     4    47 1   
     9     5     6 1   
    10     5    48 1   
    11     5    49 1   
    12     6     7 ar  
    13     6     8 ar  
    14     7     9 ar  
    15     7    50 1   
    16     8    10 ar  
    17     8    51 1   
    18     9    11 ar  
    19     9    52 1   
    20    10    11 ar  
    21    10    53 1   
    22    11    54 1   
    23    12    13 1   
    24    12    14 1   
    25    12    55 1   
    26    13    56 1   
    27    14    15 1   
    28    14    57 1   
    29    14    58 1   
    30    15    16 1   
    31    15    59 1   
    32    16    17 1   
    33    16    60 1   
    34    16    61 1   
    35    17    18 ar  
    36    17    22 ar  
    37    18    19 ar  
    38    18    62 1   
    39    19    20 ar  
    40    19    63 1   
    41    20    21 ar  
    42    20    64 1   
    43    21    22 ar  
    44    21    23 1   
    45    22    65 1   
    46    23    24 1   
    47    23    25 1   
    48    24    66 1   
    49    24    67 1   
    50    24    68 1   
    51    25    69 1   
    52    25    70 1   
    53    25    71 1   
    54    26    27 1   
    55    26    31 1   
    56    26    39 1   
    57    27    28 1   
    58    27    72 1   
    59    28    29 2   
    60    28    30 1   
    61    30    31 1   
    62    30    32 1   
    63    31    73 1   
    64    31    74 1   
    65    32    33 1   
    66    32    75 1   
    67    32    76 1   
    68    33    34 ar  
    69    33    35 ar  
    70    34    37 ar  
    71    34    77 1   
    72    35    36 ar  
    73    35    78 1   
    74    36    38 ar  
    75    36    79 1   
    76    37    38 ar  
    77    37    80 1   
    78    38    81 1   
    79    39    44 1   
    80    39    82 1   
    81    39    83 1   
    82    40    41 ar  
    83    40    45 ar  
    84    40    88 1   
    85    41    42 ar  
    86    41    84 1   
    87    42    43 ar  
    88    42    85 1   
    89    43    44 ar  
    90    43    86 1   
    91    44    45 ar  
    92    45    87 1   
@<TRIPOS>SUBSTRUCTURE
     1 009         1 TEMP              0 ****  ****    0 ROOT
