@<TRIPOS>MOLECULE
00B
   20    20     1     0     0
SMALL
No Charge or Current Charge


@<TRIPOS>ATOM
      1 C           24.1160     9.4970    54.3070 c          1 00B       0.736000
      2 N           26.4780     8.8790    55.3710 n7         1 00B      -0.808400
      3 O           24.2790     8.7760    53.3280 o          1 00B      -0.718500
      4 CA          25.3460     9.8850    55.2380 c5         1 00B       0.027500
      5 CB          26.0020    11.2550    54.7900 c5         1 00B       0.129000
      6 CD          27.3350     9.0690    54.1960 c5         1 00B       0.364800
      7 CG1         25.4420    11.9010    53.4920 c3         1 00B      -0.068100
      8 CG2         25.9550    12.3100    55.9230 c3         1 00B      -0.068100
      9 SG3         27.7870    10.8270    54.4830 ss         1 00B      -0.626000
     10 OXT         22.9930     9.8380    54.6590 o          1 00B      -0.718500
     11 HN          27.0540     9.1470    56.1730 hn         1 00B       0.373000
     12 HA          24.9000    10.0090    56.2340 h1         1 00B       0.052700
     13 HD          28.2310     8.4340    54.2250 h2         1 00B       0.066200
     14 HDA         26.7920     8.9550    53.2480 h2         1 00B       0.066200
     15 HG1         25.9960    12.8100    53.2310 hc         1 00B       0.032033
     16 HG1A        25.5200    11.2210    52.6350 hc         1 00B       0.032033
     17 HG1B        24.3880    12.1840    53.6050 hc         1 00B       0.032033
     18 HG2         26.4980    13.2220    55.6460 hc         1 00B       0.032033
     19 HG2A        24.9220    12.5950    56.1550 hc         1 00B       0.032033
     20 HG2B        26.4070    11.9240    56.8440 hc         1 00B       0.032033
@<TRIPOS>BOND
     1     1     3 1   
     2     1     4 1   
     3     1    10 1   
     4     2     4 1   
     5     2     6 1   
     6     2    11 1   
     7     4     5 1   
     8     4    12 1   
     9     5     7 1   
    10     5     8 1   
    11     5     9 1   
    12     6     9 1   
    13     6    13 1   
    14     6    14 1   
    15     7    15 1   
    16     7    16 1   
    17     7    17 1   
    18     8    18 1   
    19     8    19 1   
    20     8    20 1   
@<TRIPOS>SUBSTRUCTURE
     1 00B         1 TEMP              0 ****  ****    0 ROOT
