@<TRIPOS>MOLECULE
00B
   20    20     1     0     0
SMALL
bcc


@<TRIPOS>ATOM
      1 C           24.2770     9.3700    54.0260 c          1 00B       0.946600
      2 N           26.3020     9.0290    55.4550 n7         1 00B      -0.753200
      3 O           24.7270     8.5480    53.2060 o          1 00B      -0.823800
      4 CA          25.2530     9.9600    55.0700 c5         1 00B       0.027500
      5 CB          25.9290    11.2900    54.6060 c5         1 00B       0.081100
      6 CD          27.3570     9.0280    54.4840 c5         1 00B       0.316900
      7 CG1         25.0910    12.1330    53.6540 c3         1 00B      -0.068100
      8 CG2         26.3070    12.1310    55.8250 c3         1 00B      -0.068100
      9 SG3         27.4570    10.7320    53.7520 ss         1 00B      -0.530200
     10 OXT         23.1020     9.7840    54.1020 o          1 00B      -0.823800
     11 HN          26.6780     9.3120    56.3500 hn         1 00B       0.317800
     12 HA          24.6680    10.1880    55.9660 h1         1 00B       0.052700
     13 HD          28.3080     8.7700    54.9490 h2         1 00B       0.066200
     14 HDA         27.1550     8.3350    53.6730 h2         1 00B       0.066200
     15 HG1         25.6180    13.0520    53.3940 hc         1 00B       0.032033
     16 HG1A        24.8640    11.6070    52.7290 hc         1 00B       0.032033
     17 HG1B        24.1500    12.4150    54.1280 hc         1 00B       0.032033
     18 HG2         26.8980    13.0000    55.5340 hc         1 00B       0.032033
     19 HG2A        25.4070    12.4930    56.3290 hc         1 00B       0.032033
     20 HG2B        26.8920    11.5620    56.5490 hc         1 00B       0.032033
@<TRIPOS>BOND
     1     1     3 1   
     2     1     4 1   
     3     1    10 1   
     4     2     4 1   
     5     2     6 1   
     6     2    11 1   
     7     4     5 1   
     8     4    12 1   
     9     5     7 1   
    10     5     8 1   
    11     5     9 1   
    12     6     9 1   
    13     6    13 1   
    14     6    14 1   
    15     7    15 1   
    16     7    16 1   
    17     7    17 1   
    18     8    18 1   
    19     8    19 1   
    20     8    20 1   
@<TRIPOS>SUBSTRUCTURE
     1 00B         1 TEMP              0 ****  ****    0 ROOT
