@<TRIPOS>MOLECULE
00C
   15    14     1     0     0
SMALL
bcc


@<TRIPOS>ATOM
      1 N          -18.1600    -3.8220     0.8390 n8         1 00C      -0.897800
      2 CA         -19.0030    -3.6300     2.0080 c3         1 00C       0.068500
      3 C          -19.5920    -4.9900     2.4870 c          1 00C       0.932600
      4 O          -19.6250    -5.9050     1.6430 o          1 00C      -0.864800
      5 CB         -18.2380    -2.9310     3.1210 c3         1 00C      -0.202600
      6 SG         -17.9890    -1.1620     2.8860 s6         1 00C       1.203800
      7 OD2        -19.3450    -0.5780     2.7900 o          1 00C      -0.728533
      8 O3         -17.2550    -0.7230     4.0920 o          1 00C      -0.728533
      9 O4         -20.0310    -5.0320     3.6530 o          1 00C      -0.864800
     10 OD1        -17.2040    -0.9840     1.6440 o          1 00C      -0.728533
     11 HN         -18.6410    -4.4410     0.2010 hn         1 00C       0.327800
     12 HNA        -18.0230    -2.9390     0.3680 hn         1 00C       0.327800
     13 HA         -19.8930    -3.0140     1.7880 h1         1 00C       0.006700
     14 HB         -18.7800    -3.0260     4.0620 h1         1 00C       0.074700
     15 HBA        -17.2530    -3.3870     3.2500 h1         1 00C       0.074700
@<TRIPOS>BOND
     1     1     2 1   
     2     1    11 1   
     3     1    12 1   
     4     2     3 1   
     5     2     5 1   
     6     2    13 1   
     7     3     4 1   
     8     3     9 1   
     9     5     6 1   
    10     5    14 1   
    11     5    15 1   
    12     6     7 1   
    13     6     8 1   
    14     6    10 1   
@<TRIPOS>SUBSTRUCTURE
     1 00C         1 TEMP              0 ****  ****    0 ROOT
