@<TRIPOS>MOLECULE
00C
   15    14     1     0     0
SMALL
No Charge or Current Charge


@<TRIPOS>ATOM
      1 N          -17.9130    -3.9800     0.9230 n8         1 00C      -1.008200
      2 CA         -18.9230    -3.7160     1.9990 c3         1 00C       0.068500
      3 C          -19.7200    -4.9920     2.5450 c          1 00C       0.722000
      4 O          -20.7450    -5.3250     1.9610 o          1 00C      -0.759500
      5 CB         -18.2390    -2.8930     3.1240 c3         1 00C      -0.313400
      6 SG         -18.1550    -1.1100     2.8230 s6         1 00C       1.314600
      7 OD2        -19.5620    -0.6910     2.7430 o          1 00C      -0.728533
      8 O3         -17.4400    -0.5960     4.0010 o          1 00C      -0.728533
      9 O4         -19.2940    -5.6010     3.5210 o          1 00C      -0.759500
     10 OD1        -17.4080    -0.9840     1.5610 o          1 00C      -0.728533
     11 HN         -18.4020    -4.3000     0.0790 hn         1 00C       0.383000
     12 HNA        -17.5090    -3.0740     0.6510 hn         1 00C       0.383000
     13 HA         -19.6890    -3.0740     1.5440 h1         1 00C       0.006700
     14 HB         -18.8160    -2.9850     4.0490 h1         1 00C       0.074700
     15 HBA        -17.2190    -3.2430     3.3110 h1         1 00C       0.074700
@<TRIPOS>BOND
     1     1     2 1   
     2     1    11 1   
     3     1    12 1   
     4     2     3 1   
     5     2     5 1   
     6     2    13 1   
     7     3     4 1   
     8     3     9 1   
     9     5     6 1   
    10     5    14 1   
    11     5    15 1   
    12     6     7 1   
    13     6     8 1   
    14     6    10 1   
@<TRIPOS>SUBSTRUCTURE
     1 00C         1 TEMP              0 ****  ****    0 ROOT
