@<TRIPOS>MOLECULE
00D
   22    21     1     0     0
SMALL
No Charge or Current Charge


@<TRIPOS>ATOM
      1 N           15.7320    37.4620    25.1660 n8         1 00D      -0.993200
      2 CA          16.2060    38.3490    26.2460 c3         1 00D       0.161500
      3 CB1         17.4380    39.2330    25.8020 c3         1 00D      -0.038000
      4 CB2         14.9850    39.1300    26.7900 c3         1 00D      -0.126100
      5 CD1         18.6140    38.3130    25.3610 c3         1 00D      -0.082767
      6 CD2         17.0820    40.1830    24.6210 c3         1 00D      -0.082767
      7 CD3         17.9400    40.0940    26.9960 c3         1 00D      -0.082767
      8 HN          14.8630    37.0090    25.4690 hn         1 00D       0.388500
      9 HNA         15.4390    38.0420    24.3740 hn         1 00D       0.388500
     10 HA          16.5490    37.6970    27.0630 h1         1 00D       0.053700
     11 HB2         15.2490    39.7080    27.6820 hc         1 00D       0.035700
     12 HB2A        14.5760    39.8170    26.0400 hc         1 00D       0.035700
     13 HB2B        14.1860    38.4380    27.0830 hc         1 00D       0.035700
     14 HD1         19.5050    38.9030    25.1150 hc         1 00D       0.033700
     15 HD1A        18.8860    37.6140    26.1620 hc         1 00D       0.033700
     16 HD1B        18.3560    37.7250    24.4720 hc         1 00D       0.033700
     17 HD2         17.9590    40.7660    24.3150 hc         1 00D       0.033700
     18 HD2A        16.7370    39.6230    23.7440 hc         1 00D       0.033700
     19 HD2B        16.2970    40.8950    24.9010 hc         1 00D       0.033700
     20 HD3         18.8650    40.6240    26.7360 hc         1 00D       0.033700
     21 HD3A        17.2030    40.8530    27.2840 hc         1 00D       0.033700
     22 HD3B        18.1470    39.4670    27.8720 hc         1 00D       0.033700
@<TRIPOS>BOND
     1     1     2 1   
     2     1     8 1   
     3     1     9 1   
     4     2     3 1   
     5     2     4 1   
     6     2    10 1   
     7     3     5 1   
     8     3     6 1   
     9     3     7 1   
    10     4    11 1   
    11     4    12 1   
    12     4    13 1   
    13     5    14 1   
    14     5    15 1   
    15     5    16 1   
    16     6    17 1   
    17     6    18 1   
    18     6    19 1   
    19     7    20 1   
    20     7    21 1   
    21     7    22 1   
@<TRIPOS>SUBSTRUCTURE
     1 00D         1 TEMP              0 ****  ****    0 ROOT
