@<TRIPOS>MOLECULE
00D
   22    21     1     0     0
SMALL
abcg2


@<TRIPOS>ATOM
      1 N           15.7400    37.5410    25.0730 n8         1 00D      -0.993200
      2 CA          16.2020    38.3670    26.2060 c3         1 00D       0.161500
      3 CB1         17.4260    39.2340    25.7910 c3         1 00D      -0.038000
      4 CB2         15.0520    39.1610    26.8360 c3         1 00D      -0.126100
      5 CD1         18.5870    38.3100    25.3940 c3         1 00D      -0.082767
      6 CD2         17.0880    40.1540    24.6100 c3         1 00D      -0.082767
      7 CD3         17.8840    40.0920    26.9800 c3         1 00D      -0.082767
      8 HN          15.0450    36.8830    25.4100 hn         1 00D       0.388500
      9 HNA         15.2540    38.1290    24.4030 hn         1 00D       0.388500
     10 HA          16.5710    37.6650    26.9610 h1         1 00D       0.053700
     11 HB2         15.3520    39.6740    27.7500 hc         1 00D       0.035700
     12 HB2A        14.6580    39.9070    26.1400 hc         1 00D       0.035700
     13 HB2B        14.2380    38.4790    27.0880 hc         1 00D       0.035700
     14 HD1         19.4620    38.9010    25.1140 hc         1 00D       0.033700
     15 HD1A        18.8700    37.6630    26.2290 hc         1 00D       0.033700
     16 HD1B        18.3170    37.6750    24.5500 hc         1 00D       0.033700
     17 HD2         17.9570    40.7640    24.3530 hc         1 00D       0.033700
     18 HD2A        16.8140    39.5830    23.7210 hc         1 00D       0.033700
     19 HD2B        16.2670    40.8310    24.8500 hc         1 00D       0.033700
     20 HD3         18.8280    40.5880    26.7390 hc         1 00D       0.033700
     21 HD3A        17.1570    40.8660    27.2280 hc         1 00D       0.033700
     22 HD3B        18.0440    39.4770    27.8690 hc         1 00D       0.033700
@<TRIPOS>BOND
     1     1     2 1   
     2     1     8 1   
     3     1     9 1   
     4     2     3 1   
     5     2     4 1   
     6     2    10 1   
     7     3     5 1   
     8     3     6 1   
     9     3     7 1   
    10     4    11 1   
    11     4    12 1   
    12     4    13 1   
    13     5    14 1   
    14     5    15 1   
    15     5    16 1   
    16     6    17 1   
    17     6    18 1   
    18     6    19 1   
    19     7    20 1   
    20     7    21 1   
    21     7    22 1   
@<TRIPOS>SUBSTRUCTURE
     1 00D         1 TEMP              0 ****  ****    0 ROOT
