@<TRIPOS>MOLECULE
00E
   20    20     1     0     0
SMALL
No Charge or Current Charge


@<TRIPOS>ATOM
      1 C            2.4370     0.0270     0.0320 c          1 00E       0.722000
      2 O            2.9360     0.1270     1.1470 o          1 00E      -0.730500
      3 CA           1.1840    -0.9050    -0.1510 c3         1 00E       0.023800
      4 NB          -0.1740    -0.3560     0.1800 n3         1 00E      -0.680600
      5 OZ          -2.9400     0.3590    -0.3890 os         1 00E      -0.476000
      6 CD1         -1.2550    -1.3860     0.0790 c6         1 00E       0.134300
      7 CD2         -0.5300     0.8610    -0.6160 c6         1 00E       0.134300
      8 CE1         -2.6540    -0.7970     0.4350 c6         1 00E       0.153100
      9 CE2         -1.9460     1.4030    -0.2470 c6         1 00E       0.153100
     10 OXT          2.8820     0.6090    -0.9510 o          1 00E      -0.730500
     11 HAA          1.1870    -1.2500    -1.1940 h1         1 00E       0.011700
     12 HAB          1.3650    -1.7960     0.4660 h1         1 00E       0.011700
     13 HD1         -1.2960    -1.7960    -0.9410 h1         1 00E       0.033700
     14 HD1A        -1.0430    -2.2270     0.7560 h1         1 00E       0.033700
     15 HD2          0.2050     1.6610    -0.4430 h1         1 00E       0.033700
     16 HD2A        -0.5100     0.6320    -1.6920 h1         1 00E       0.033700
     17 HE1         -2.6810    -0.5010     1.4940 h1         1 00E       0.034700
     18 HE1A        -3.4330    -1.5550     0.2720 h1         1 00E       0.034700
     19 HE2         -2.2090     2.2420    -0.9070 h1         1 00E       0.034700
     20 HE2A        -1.9510     1.7680     0.7900 h1         1 00E       0.034700
@<TRIPOS>BOND
     1     1     2 1   
     2     1     3 1   
     3     1    10 1   
     4     3     4 1   
     5     3    11 1   
     6     3    12 1   
     7     4     6 1   
     8     4     7 1   
     9     5     8 1   
    10     5     9 1   
    11     6     8 1   
    12     6    13 1   
    13     6    14 1   
    14     7     9 1   
    15     7    15 1   
    16     7    16 1   
    17     8    17 1   
    18     8    18 1   
    19     9    19 1   
    20     9    20 1   
@<TRIPOS>SUBSTRUCTURE
     1 00E         1 TEMP              0 ****  ****    0 ROOT
