@<TRIPOS>MOLECULE
00E
   20    20     1     0     0
SMALL
abcg2


@<TRIPOS>ATOM
      1 C            2.3310     0.0130     0.0930 c          1 00E       0.722000
      2 O            2.1610     0.9670     0.8750 o          1 00E      -0.730500
      3 CA           1.1140    -0.8400    -0.3120 c3         1 00E       0.023800
      4 NB          -0.1760    -0.3430     0.1040 n3         1 00E      -0.680600
      5 OZ          -2.9110     0.3670    -0.2000 os         1 00E      -0.476000
      6 CD1         -1.2110    -1.3490    -0.0150 c6         1 00E       0.134300
      7 CD2         -0.5710     0.8470    -0.6220 c6         1 00E       0.134300
      8 CE1         -2.5310    -0.8010     0.4920 c6         1 00E       0.153100
      9 CE2         -1.9060     1.3530    -0.1120 c6         1 00E       0.153100
     10 OXT          3.4070    -0.3700    -0.4040 o          1 00E      -0.730500
     11 HAA          1.1570    -1.0130    -1.4020 h1         1 00E       0.011700
     12 HAB          1.2580    -1.8280     0.1420 h1         1 00E       0.011700
     13 HD1         -1.3360    -1.7010    -1.0550 h1         1 00E       0.033700
     14 HD1A        -0.9410    -2.2230     0.5840 h1         1 00E       0.033700
     15 HD2          0.1790     1.6240    -0.4820 h1         1 00E       0.033700
     16 HD2A        -0.6480     0.6520    -1.7080 h1         1 00E       0.033700
     17 HE1         -2.4470    -0.5990     1.5700 h1         1 00E       0.034700
     18 HE1A        -3.3260    -1.5360     0.3510 h1         1 00E       0.034700
     19 HE2         -2.2370     2.2070    -0.7060 h1         1 00E       0.034700
     20 HE2A        -1.7920     1.6920     0.9280 h1         1 00E       0.034700
@<TRIPOS>BOND
     1     1     2 1   
     2     1     3 1   
     3     1    10 1   
     4     3     4 1   
     5     3    11 1   
     6     3    12 1   
     7     4     6 1   
     8     4     7 1   
     9     5     8 1   
    10     5     9 1   
    11     6     8 1   
    12     6    13 1   
    13     6    14 1   
    14     7     9 1   
    15     7    15 1   
    16     7    16 1   
    17     8    17 1   
    18     8    18 1   
    19     9    19 1   
    20     9    20 1   
@<TRIPOS>SUBSTRUCTURE
     1 00E         1 TEMP              0 ****  ****    0 ROOT
