@<TRIPOS>MOLECULE
00F
   34    34     1     0     0
SMALL
No Charge or Current Charge


@<TRIPOS>ATOM
      1 N13         -0.3680     2.9210     1.0670 n8         1 00F      -0.956200
      2 C15         -0.8010     1.5310     0.6180 c3         1 00F      -0.175500
      3 C16         -2.2350     1.6370     0.0260 c3         1 00F      -0.040100
      4 C17         -2.9840     0.3080    -0.0400 ca         1 00F      -0.035300
      5 C18         -3.3070    -0.2710    -1.2840 ca         1 00F      -0.084500
      6 C19         -4.0130    -1.4850    -1.3400 ca         1 00F      -0.120000
      7 C20         -4.4040    -2.1270    -0.1530 ca         1 00F      -0.134000
      8 C21         -4.0900    -1.5540     1.0900 ca         1 00F      -0.120000
      9 C22         -3.3840    -0.3400     1.1470 ca         1 00F      -0.084500
     10 P33          0.3260     0.3990    -0.4560 p5         1 00F       1.382000
     11 O36         -0.0140    -1.0480    -0.2630 o          1 00F      -0.838500
     12 C37          2.0210     0.7190     0.2220 c3         1 00F      -0.400400
     13 C39          3.1600    -0.3150    -0.0910 c3         1 00F      -0.151700
     14 C40          3.5140    -0.3730    -1.5980 c3         1 00F      -0.065100
     15 C45          4.4410    -0.0790     0.7650 c          1 00F       0.716000
     16 O46          5.0580     0.9700     0.6340 o          1 00F      -0.770000
     17 OP3          0.2750     0.8220    -1.8940 o          1 00F      -0.838500
     18 HN13        -0.2190     3.5250     0.2490 hn         1 00F       0.364000
     19 HN1A        -1.1310     3.3800     1.5800 hn         1 00F       0.364000
     20 H15         -0.8760     0.9320     1.5350 h1         1 00F       0.061700
     21 H16         -2.8290     2.3310     0.6360 hc         1 00F       0.023700
     22 H16A        -2.1780     2.0940    -0.9700 hc         1 00F       0.023700
     23 H18         -3.0100     0.2190    -2.2080 ha         1 00F       0.116000
     24 H19         -4.2570    -1.9270    -2.3030 ha         1 00F       0.087000
     25 H20         -4.9500    -3.0670    -0.1970 ha         1 00F       0.080000
     26 H21         -4.3940    -2.0490     2.0090 ha         1 00F       0.087000
     27 H22         -3.1500     0.1010     2.1130 ha         1 00F       0.116000
     28 H37          2.3140     1.7180    -0.1180 hc         1 00F       0.046200
     29 H37A         1.8840     0.7770     1.3070 hc         1 00F       0.046200
     30 H39          2.7780    -1.3060     0.1830 hc         1 00F       0.043700
     31 H40          2.6530    -0.6960    -2.1930 hc         1 00F       0.009700
     32 H40A         3.8400     0.6080    -1.9640 hc         1 00F       0.009700
     33 H40B         4.3260    -1.0900    -1.7710 hc         1 00F       0.009700
     34 OXT          4.7850    -0.9580     1.5420 o          1 00F      -0.770000
@<TRIPOS>BOND
     1     1     2 1   
     2     1    18 1   
     3     1    19 1   
     4     2     3 1   
     5     2    10 1   
     6     2    20 1   
     7     3     4 1   
     8     3    21 1   
     9     3    22 1   
    10     4     5 ar  
    11     4     9 ar  
    12     5     6 ar  
    13     5    23 1   
    14     6     7 ar  
    15     6    24 1   
    16     7     8 ar  
    17     7    25 1   
    18     8     9 ar  
    19     8    26 1   
    20     9    27 1   
    21    10    11 1   
    22    10    12 1   
    23    10    17 1   
    24    12    13 1   
    25    12    28 1   
    26    12    29 1   
    27    13    14 1   
    28    13    15 1   
    29    13    30 1   
    30    14    31 1   
    31    14    32 1   
    32    14    33 1   
    33    15    16 1   
    34    15    34 1   
@<TRIPOS>SUBSTRUCTURE
     1 00F         1 TEMP              0 ****  ****    0 ROOT
