@<TRIPOS>MOLECULE
00F
   34    34     1     0     0
SMALL
abcg2


@<TRIPOS>ATOM
      1 N13         -0.1600     2.8130     0.6940 n8         1 00F      -0.956200
      2 C15         -0.7710     1.4940     0.5910 c3         1 00F      -0.175500
      3 C16         -2.1920     1.5650    -0.0010 c3         1 00F      -0.040100
      4 C17         -2.9660     0.2800     0.0060 ca         1 00F      -0.035300
      5 C18         -3.0330    -0.5260    -1.1280 ca         1 00F      -0.084500
      6 C19         -3.7690    -1.7010    -1.1270 ca         1 00F      -0.120000
      7 C20         -4.4410    -2.1040     0.0220 ca         1 00F      -0.134000
      8 C21         -4.3730    -1.3160     1.1640 ca         1 00F      -0.120000
      9 C22         -3.6450    -0.1330     1.1500 ca         1 00F      -0.084500
     10 P33          0.3330     0.4000    -0.4310 p5         1 00F       1.382000
     11 O36         -0.0420    -1.0520    -0.2010 o          1 00F      -0.838500
     12 C37          1.9910     0.6800     0.3210 c3         1 00F      -0.400400
     13 C39          3.0500    -0.3070    -0.1660 c3         1 00F      -0.151700
     14 C40          3.4720    -0.0130    -1.6080 c3         1 00F      -0.065100
     15 C45          4.3070    -0.3760     0.7330 c          1 00F       0.716000
     16 O46          4.3890     0.3980     1.7080 o          1 00F      -0.770000
     17 OP3          0.2820     0.9540    -1.8490 o          1 00F      -0.838500
     18 HN13        -0.0090     3.1780    -0.2390 hn         1 00F       0.364000
     19 HN1A        -0.8090     3.4550     1.1360 hn         1 00F       0.364000
     20 H15         -0.8350     1.0670     1.5990 h1         1 00F       0.061700
     21 H16         -2.7490     2.3160     0.5730 hc         1 00F       0.023700
     22 H16A        -2.1170     1.9460    -1.0220 hc         1 00F       0.023700
     23 H18         -2.4960    -0.2230    -2.0190 ha         1 00F       0.116000
     24 H19         -3.8170    -2.3090    -2.0220 ha         1 00F       0.087000
     25 H20         -5.0160    -3.0210     0.0250 ha         1 00F       0.080000
     26 H21         -4.8970    -1.6170     2.0630 ha         1 00F       0.087000
     27 H22         -3.6110     0.4840     2.0420 ha         1 00F       0.116000
     28 H37          2.3150     1.7080     0.1410 hc         1 00F       0.046200
     29 H37A         1.8710     0.5870     1.4030 hc         1 00F       0.046200
     30 H39          2.6080    -1.3110    -0.1550 hc         1 00F       0.043700
     31 H40          2.6200    -0.0430    -2.2850 hc         1 00F       0.009700
     32 H40A         3.9100     0.9870    -1.6840 hc         1 00F       0.009700
     33 H40B         4.2150    -0.7290    -1.9550 hc         1 00F       0.009700
     34 OXT          5.1650    -1.2230     0.4010 o          1 00F      -0.770000
@<TRIPOS>BOND
     1     1     2 1   
     2     1    18 1   
     3     1    19 1   
     4     2     3 1   
     5     2    10 1   
     6     2    20 1   
     7     3     4 1   
     8     3    21 1   
     9     3    22 1   
    10     4     5 ar  
    11     4     9 ar  
    12     5     6 ar  
    13     5    23 1   
    14     6     7 ar  
    15     6    24 1   
    16     7     8 ar  
    17     7    25 1   
    18     8     9 ar  
    19     8    26 1   
    20     9    27 1   
    21    10    11 1   
    22    10    12 1   
    23    10    17 1   
    24    12    13 1   
    25    12    28 1   
    26    12    29 1   
    27    13    14 1   
    28    13    15 1   
    29    13    30 1   
    30    14    31 1   
    31    14    32 1   
    32    14    33 1   
    33    15    16 1   
    34    15    34 1   
@<TRIPOS>SUBSTRUCTURE
     1 00F         1 TEMP              0 ****  ****    0 ROOT
