@<TRIPOS>MOLECULE
00G
   31    33     1     0     0
SMALL
No Charge or Current Charge


@<TRIPOS>ATOM
      1 C17         -4.6070    -0.0040     1.1370 cc         1 00G      -0.200000
      2 C16         -5.7460     0.6140     0.7020 cd         1 00G      -0.178500
      3 C15         -5.7480     0.6290    -0.7040 cd         1 00G      -0.178500
      4 C14         -4.6090     0.0210    -1.1550 cc         1 00G      -0.200000
      5 N13         -3.9030    -0.3710    -0.0140 na         1 00G       0.018000
      6 C12         -2.6050    -1.0600    -0.0230 c3         1 00G       0.065600
      7 C11         -1.4170    -0.0830    -0.0160 c3         1 00G       0.145600
      8 O10         -0.2060    -0.8610    -0.0250 os         1 00G      -0.358100
      9 C3           1.0440    -0.2750    -0.0220 ca         1 00G       0.110100
     10 C2           1.2250     1.1360    -0.0100 ca         1 00G      -0.166000
     11 C4           2.1690    -1.1270    -0.0320 ca         1 00G      -0.101000
     12 C5           3.4400    -0.5410    -0.0290 ca         1 00G      -0.062800
     13 C9           4.7390    -1.1380    -0.0370 cc         1 00G      -0.249200
     14 C8           5.6650    -0.1020    -0.0290 cd         1 00G      -0.153100
     15 N7           4.9680     1.1330    -0.0170 na         1 00G      -0.225700
     16 C6           3.6190     0.8130    -0.0180 ca         1 00G      -0.078200
     17 C1           2.5250     1.6890    -0.0080 ca         1 00G      -0.091000
     18 H17         -4.2440    -0.2080     2.1370 h4         1 00G       0.143000
     19 H16         -6.5230     1.0260     1.3410 ha         1 00G       0.131000
     20 H15         -6.5260     1.0550    -1.3330 ha         1 00G       0.131000
     21 H14         -4.2490    -0.1610    -2.1600 h4         1 00G       0.143000
     22 H12         -2.5470    -1.7100     0.8590 h1         1 00G       0.071700
     23 H12A        -2.5500    -1.6930    -0.9160 h1         1 00G       0.071700
     24 H11         -1.4720     0.5620    -0.9030 h1         1 00G       0.043700
     25 H11A        -1.4690     0.5460     0.8820 h1         1 00G       0.043700
     26 H2           0.3760     1.8130    -0.0030 ha         1 00G       0.116000
     27 H4           2.0490    -2.2070    -0.0410 ha         1 00G       0.129000
     28 H9           4.9750    -2.2010    -0.0470 ha         1 00G       0.207000
     29 H8           6.7530    -0.1480    -0.0320 h4         1 00G       0.211000
     30 H1           2.6720     2.7670     0.0020 ha         1 00G       0.113000
     31 HN7          5.3750     2.0640    -0.0100 hn         1 00G       0.349000
@<TRIPOS>BOND
     1     1     2 2   
     2     1     5 1   
     3     1    18 1   
     4     2     3 1   
     5     2    19 1   
     6     3     4 2   
     7     3    20 1   
     8     4     5 1   
     9     4    21 1   
    10     5     6 1   
    11     6     7 1   
    12     6    22 1   
    13     6    23 1   
    14     7     8 1   
    15     7    24 1   
    16     7    25 1   
    17     8     9 1   
    18     9    10 ar  
    19     9    11 ar  
    20    10    17 ar  
    21    10    26 1   
    22    11    12 ar  
    23    11    27 1   
    24    12    13 1   
    25    12    16 ar  
    26    13    14 2   
    27    13    28 1   
    28    14    15 1   
    29    14    29 1   
    30    15    16 1   
    31    15    31 1   
    32    16    17 ar  
    33    17    30 1   
@<TRIPOS>SUBSTRUCTURE
     1 00G         1 TEMP              0 ****  ****    0 ROOT
