@<TRIPOS>MOLECULE
00G
   31    33     1     0     0
SMALL
bcc


@<TRIPOS>ATOM
      1 C17         -4.5020     0.0030     1.0930 cc         1 00G      -0.167300
      2 C16         -5.6040     0.7110     0.6850 cd         1 00G      -0.196500
      3 C15         -5.5850     0.7280    -0.7340 cd         1 00G      -0.196500
      4 C14         -4.4730     0.0290    -1.1300 cc         1 00G      -0.167300
      5 N13         -3.8260    -0.4140    -0.0150 na         1 00G      -0.054100
      6 C12         -2.5640    -1.1170    -0.0060 c3         1 00G       0.036300
      7 C11         -1.3960    -0.1420     0.0070 c3         1 00G       0.122400
      8 O10         -0.2220    -0.9220     0.0290 os         1 00G      -0.334900
      9 C3           0.9880    -0.3050     0.0110 ca         1 00G       0.110100
     10 C2           1.1390     1.0940     0.0250 ca         1 00G      -0.184000
     11 C4           2.0950    -1.1380    -0.0180 ca         1 00G      -0.119000
     12 C5           3.3710    -0.5690    -0.0320 ca         1 00G      -0.062800
     13 C9           4.6950    -1.1080    -0.0620 cc         1 00G      -0.199200
     14 C8           5.5510    -0.0430    -0.0650 cd         1 00G      -0.103100
     15 N7           4.8440     1.1220    -0.0380 na         1 00G      -0.175400
     16 C6           3.5060     0.8370    -0.0190 ca         1 00G      -0.078200
     17 C1           2.3970     1.6720     0.0090 ca         1 00G      -0.109000
     18 H17         -4.1510    -0.2450     2.0820 h4         1 00G       0.161000
     19 H16         -6.3440     1.1550     1.3300 ha         1 00G       0.149000
     20 H15         -6.3090     1.1890    -1.3880 ha         1 00G       0.149000
     21 H14         -4.0960    -0.1920    -2.1170 h4         1 00G       0.161000
     22 H12         -2.5280    -1.7610     0.8730 h1         1 00G       0.071700
     23 H12A        -2.5110    -1.7570    -0.8880 h1         1 00G       0.071700
     24 H11         -1.4340     0.4980    -0.8820 h1         1 00G       0.043700
     25 H11A        -1.4630     0.5050     0.8900 h1         1 00G       0.043700
     26 H2           0.2780     1.7470     0.0490 ha         1 00G       0.134000
     27 H4           1.9630    -2.2130    -0.0290 ha         1 00G       0.147000
     28 H9           4.9760    -2.1490    -0.0810 ha         1 00G       0.157000
     29 H8           6.6290    -0.0280    -0.0850 h4         1 00G       0.161000
     30 H1           2.5000     2.7500     0.0200 ha         1 00G       0.131000
     31 HN7          5.2490     2.0430    -0.0390 hn         1 00G       0.298700
@<TRIPOS>BOND
     1     1     2 2   
     2     1     5 1   
     3     1    18 1   
     4     2     3 1   
     5     2    19 1   
     6     3     4 2   
     7     3    20 1   
     8     4     5 1   
     9     4    21 1   
    10     5     6 1   
    11     6     7 1   
    12     6    22 1   
    13     6    23 1   
    14     7     8 1   
    15     7    24 1   
    16     7    25 1   
    17     8     9 1   
    18     9    10 ar  
    19     9    11 ar  
    20    10    17 ar  
    21    10    26 1   
    22    11    12 ar  
    23    11    27 1   
    24    12    13 1   
    25    12    16 ar  
    26    13    14 2   
    27    13    28 1   
    28    14    15 1   
    29    14    29 1   
    30    15    16 1   
    31    15    31 1   
    32    16    17 ar  
    33    17    30 1   
@<TRIPOS>SUBSTRUCTURE
     1 00G         1 TEMP              0 ****  ****    0 ROOT
