@<TRIPOS>MOLECULE
00H
   31    31     1     0     0
SMALL
No Charge or Current Charge


@<TRIPOS>ATOM
      1 N12         -0.0100     2.8780    -0.6360 n8         1 00H      -1.013200
      2 C13          0.5490     1.4740    -0.4140 c3         1 00H      -0.177500
      3 C14          1.9530     1.5880     0.2460 c3         1 00H      -0.005100
      4 C15          2.8140     0.3350     0.1040 ca         1 00H      -0.041300
      5 C16          3.2980    -0.0530    -1.1620 ca         1 00H      -0.088000
      6 C17          4.1060    -1.1960    -1.2940 ca         1 00H      -0.121000
      7 C18          4.4380    -1.9570    -0.1620 ca         1 00H      -0.136000
      8 C19          3.9630    -1.5740     1.1030 ca         1 00H      -0.121000
      9 C20          3.1550    -0.4310     1.2370 ca         1 00H      -0.088000
     10 P21         -0.4850     0.0740     0.4110 p5         1 00H       1.342000
     11 O22         -0.0660    -1.2790    -0.0760 o          1 00H      -0.825500
     12 O23         -0.4540     0.1950     1.9040 o          1 00H      -0.825500
     13 C24         -2.2020     0.4260    -0.1880 c3         1 00H      -0.408400
     14 C25         -3.2980    -0.6120     0.2230 c3         1 00H      -0.164400
     15 C26         -4.7020    -0.2330    -0.3120 c          1 00H       0.712000
     16 O27         -5.4130     0.4830     0.3780 o          1 00H      -0.774000
     17 HN12        -0.9100     2.8220    -1.1320 hn         1 00H       0.388500
     18 HN1A        -0.2660     3.3010     0.2680 hn         1 00H       0.388500
     19 H13          0.6990     1.0570    -1.4190 h1         1 00H       0.049700
     20 H14          2.4960     2.4270    -0.2070 hc         1 00H       0.035200
     21 H14A         1.8320     1.8530     1.3040 hc         1 00H       0.035200
     22 H16          3.0500     0.5350    -2.0430 ha         1 00H       0.119500
     23 H17          4.4750    -1.4890    -2.2740 ha         1 00H       0.086500
     24 H18          5.0640    -2.8410    -0.2640 ha         1 00H       0.080000
     25 H19          4.2210    -2.1620     1.9810 ha         1 00H       0.086500
     26 H20          2.7940    -0.1430     2.2210 ha         1 00H       0.119500
     27 H24         -2.4770     1.4170     0.1900 hc         1 00H       0.032200
     28 H24A        -2.1500     0.4940    -1.2800 hc         1 00H       0.032200
     29 H25         -2.9790    -1.5670    -0.2130 hc         1 00H       0.027200
     30 H25A        -3.3060    -0.6140     1.3200 hc         1 00H       0.027200
     31 OXT         -5.0290    -0.6320    -1.4200 o          1 00H      -0.774000
@<TRIPOS>BOND
     1     1     2 1   
     2     1    17 1   
     3     1    18 1   
     4     2     3 1   
     5     2    10 1   
     6     2    19 1   
     7     3     4 1   
     8     3    20 1   
     9     3    21 1   
    10     4     5 ar  
    11     4     9 ar  
    12     5     6 ar  
    13     5    22 1   
    14     6     7 ar  
    15     6    23 1   
    16     7     8 ar  
    17     7    24 1   
    18     8     9 ar  
    19     8    25 1   
    20     9    26 1   
    21    10    11 1   
    22    10    12 1   
    23    10    13 1   
    24    13    14 1   
    25    13    27 1   
    26    13    28 1   
    27    14    15 1   
    28    14    29 1   
    29    14    30 1   
    30    15    16 1   
    31    15    31 1   
@<TRIPOS>SUBSTRUCTURE
     1 00H         1 TEMP              0 ****  ****    0 ROOT
