@<TRIPOS>MOLECULE
00H
   31    31     1     0     0
SMALL
bcc


@<TRIPOS>ATOM
      1 N12         -0.0570     2.8160    -0.3420 n8         1 00H      -0.902800
      2 C13          0.5440     1.4830    -0.4310 c3         1 00H      -0.019700
      3 C14          1.9390     1.5630     0.2030 c3         1 00H      -0.005100
      4 C15          2.7870     0.3320     0.0540 ca         1 00H      -0.041300
      5 C16          3.5580     0.1410    -1.0910 ca         1 00H      -0.106000
      6 C17          4.3650    -0.9800    -1.2340 ca         1 00H      -0.139000
      7 C18          4.4200    -1.9300    -0.2230 ca         1 00H      -0.154000
      8 C19          3.6570    -1.7500     0.9240 ca         1 00H      -0.139000
      9 C20          2.8440    -0.6340     1.0550 ca         1 00H      -0.106000
     10 P21         -0.4900     0.1560     0.3680 p5         1 00H       1.026400
     11 O22         -0.0770    -1.2080    -0.1500 o          1 00H      -0.825500
     12 O23         -0.4660     0.4140     1.8690 o          1 00H      -0.825500
     13 C24         -2.1870     0.5170    -0.2520 c3         1 00H      -0.250600
     14 C25         -3.1710    -0.5510     0.2040 c3         1 00H      -0.164400
     15 C26         -4.6330    -0.3630    -0.2390 c          1 00H       0.922600
     16 O27         -4.9220     0.6440    -0.9130 o          1 00H      -0.879300
     17 HN12        -0.9020     2.8500    -0.8990 hn         1 00H       0.333300
     18 HN1A        -0.3550     2.9800     0.6140 hn         1 00H       0.333300
     19 H13          0.6590     1.2400    -1.4930 h1         1 00H       0.049700
     20 H14          2.4550     2.4130    -0.2530 hc         1 00H       0.035200
     21 H14A         1.8220     1.8020     1.2640 hc         1 00H       0.035200
     22 H16          3.5330     0.8850    -1.8790 ha         1 00H       0.137500
     23 H17          4.9590    -1.1060    -2.1310 ha         1 00H       0.104500
     24 H18          5.0560    -2.8000    -0.3250 ha         1 00H       0.098000
     25 H19          3.6930    -2.4850     1.7190 ha         1 00H       0.104500
     26 H20          2.2360    -0.5090     1.9430 ha         1 00H       0.137500
     27 H24         -2.5150     1.4980     0.0980 hc         1 00H       0.032200
     28 H24A        -2.1720     0.5670    -1.3460 hc         1 00H       0.032200
     29 H25         -2.8330    -1.5330    -0.1410 hc         1 00H       0.027200
     30 H25A        -3.1570    -0.6180     1.2970 hc         1 00H       0.027200
     31 OXT         -5.4280    -1.2590     0.1240 o          1 00H      -0.879300
@<TRIPOS>BOND
     1     1     2 1   
     2     1    17 1   
     3     1    18 1   
     4     2     3 1   
     5     2    10 1   
     6     2    19 1   
     7     3     4 1   
     8     3    20 1   
     9     3    21 1   
    10     4     5 ar  
    11     4     9 ar  
    12     5     6 ar  
    13     5    22 1   
    14     6     7 ar  
    15     6    23 1   
    16     7     8 ar  
    17     7    24 1   
    18     8     9 ar  
    19     8    25 1   
    20     9    26 1   
    21    10    11 1   
    22    10    12 1   
    23    10    13 1   
    24    13    14 1   
    25    13    27 1   
    26    13    28 1   
    27    14    15 1   
    28    14    29 1   
    29    14    30 1   
    30    15    16 1   
    31    15    31 1   
@<TRIPOS>SUBSTRUCTURE
     1 00H         1 TEMP              0 ****  ****    0 ROOT
