@<TRIPOS>MOLECULE
00I
   76    79     1     0     0
SMALL
No Charge or Current Charge


@<TRIPOS>ATOM
      1 C           16.1610   -15.3470    22.8440 c          1 00I       0.582100
      2 N           15.2020   -17.3430    24.1620 n7         1 00I      -0.889300
      3 O           16.2740   -14.6530    23.8490 o          1 00I      -0.627100
      4 S           16.4640   -18.2260    24.8080 sy         1 00I       1.177600
      5 C1          18.6510   -16.5130    24.6330 ca         1 00I       0.025000
      6 N1          16.7520   -15.0070    21.6430 ns         1 00I      -0.494900
      7 C2          17.9300   -17.5520    24.0090 ca         1 00I      -0.288500
      8 N2          19.4060   -12.7000    20.1470 n          1 00I      -0.398800
      9 C3          18.3850   -18.0800    22.7820 ca         1 00I      -0.022000
     10 C4          19.5420   -17.5570    22.1790 ca         1 00I      -0.127000
     11 C5          21.4330   -16.0120    22.2090 ca         1 00I      -0.115000
     12 C6          22.1610   -14.9920    22.8470 ca         1 00I      -0.097000
     13 C7          21.7130   -14.4700    24.0710 ca         1 00I      -0.127000
     14 C8          20.5390   -14.9660    24.6620 ca         1 00I      -0.076000
     15 C9          19.8140   -15.9970    24.0330 ca         1 00I      -0.063000
     16 CA          15.3270   -16.6740    22.8280 c3         1 00I       0.152500
     17 CB          13.9170   -16.3170    22.2950 c3         1 00I      -0.050400
     18 CG          12.8940   -17.4770    22.2000 c3         1 00I      -0.211400
     19 CZ          12.3050   -12.8180    22.4280 ca         1 00I      -0.178900
     20 C10         20.2620   -16.5210    22.8010 ca         1 00I      -0.001000
     21 O1S         16.2330   -19.6090    24.3830 o          1 00I      -0.539500
     22 C21         18.6150   -13.8430    20.4320 c          1 00I       0.590100
     23 C22         20.4900   -12.7340    19.1270 c6         1 00I       0.095500
     24 O2S         16.4710   -17.8410    26.2200 o          1 00I      -0.539500
     25 C32         21.8850   -12.7200    19.7940 c6         1 00I      -0.100400
     26 C42         22.0310   -11.5120    20.7510 c6         1 00I      -0.072400
     27 C52         20.8600   -11.4630    21.7620 c6         1 00I      -0.100400
     28 C62         19.4940   -11.5090    21.0370 c6         1 00I       0.095500
     29 CA1         17.3500   -13.6850    21.3390 c3         1 00I       0.040700
     30 CB1         16.3090   -12.7380    20.6640 c3         1 00I      -0.038100
     31 CD1         13.8190   -13.2820    20.5580 ca         1 00I      -0.112500
     32 CD2         14.6900   -12.2630    22.5770 ca         1 00I      -0.112500
     33 CE1         12.5330   -13.3220    21.1280 ca         1 00I      -0.078000
     34 OE1         10.8240   -16.3410    22.0040 o          1 00I      -0.740000
     35 CE2         13.4070   -12.2990    23.1490 ca         1 00I      -0.078000
     36 CG1         14.9090   -12.7620    21.2810 ca         1 00I      -0.088300
     37 NG1         10.0260   -13.6660    22.6800 n2         1 00I      -0.820100
     38 NG2         10.5980   -11.8530    23.8540 nv         1 00I      -1.045200
     39 HN          15.1080   -16.6250    24.8800 hn         1 00I       0.510000
     40 H1          18.3130   -16.1020    25.5830 ha         1 00I       0.127000
     41 HN1         16.6730   -15.6720    20.8820 hn         1 00I       0.333500
     42 H3          17.8470   -18.8920    22.2940 ha         1 00I       0.140000
     43 H4          19.8830   -17.9660    21.2310 ha         1 00I       0.111000
     44 H5          21.7830   -16.4100    21.2590 ha         1 00I       0.111000
     45 H6          23.0700   -14.6070    22.3920 ha         1 00I       0.108000
     46 H7          22.2760   -13.6780    24.5620 ha         1 00I       0.111000
     47 H8          20.2010   -14.5560    25.6110 ha         1 00I       0.120000
     48 HA          15.7880   -17.3560    22.1000 h1         1 00I       0.086700
     49 HB          13.4900   -15.5190    22.9160 hc         1 00I       0.054200
     50 HBA         14.0410   -15.8970    21.2910 hc         1 00I       0.054200
     51 OE2         11.6520   -17.1810    20.2030 o          1 00I      -0.740000
     52 HG          12.6100   -17.7090    23.2330 hc         1 00I       0.030200
     53 HGA         13.3900   -18.3040    21.6790 hc         1 00I       0.030200
     54 H22         20.3980   -13.6180    18.4810 h1         1 00I       0.054200
     55 H22A        20.3900   -11.8530    18.4770 h1         1 00I       0.054200
     56 H32         22.0310   -13.6560    20.3460 hc         1 00I       0.054200
     57 H32A        22.6670   -12.6870    19.0230 hc         1 00I       0.054200
     58 H42         22.9890   -11.5700    21.2870 hc         1 00I       0.036200
     59 H42A        22.0530   -10.5810    20.1680 hc         1 00I       0.036200
     60 H52         20.9300   -12.3110    22.4540 hc         1 00I       0.054200
     61 H52A        20.9280   -10.5530    22.3730 hc         1 00I       0.054200
     62 H62         19.3770   -10.6030    20.4260 h1         1 00I       0.054200
     63 H62A        18.6940   -11.4930    21.7860 h1         1 00I       0.054200
     64 HA1         17.6790   -13.2420    22.2870 h1         1 00I       0.087700
     65 HB1         16.6890   -11.7110    20.6710 hc         1 00I       0.059700
     66 HB1A        16.2390   -13.0140    19.6040 hc         1 00I       0.059700
     67 HD1         13.9660   -13.6720    19.5530 ha         1 00I       0.108000
     68 HD2         15.5210   -11.8610    23.1510 ha         1 00I       0.108000
     69 HE1         11.7120   -13.7380    20.5460 ha         1 00I       0.130000
     70 HE2         13.2750   -11.9300    24.1640 ha         1 00I       0.130000
     71 HNG1        10.4620   -14.5570    22.3570 hn         1 00I       0.461400
     72 HNG2        11.1560   -11.0140    23.7500 hn         1 00I       0.452500
     73 HNGA         9.5990   -11.7160    23.9480 hn         1 00I       0.452500
     74 O1          18.8650   -14.9150    19.8900 o          1 00I      -0.616100
     75 CF          10.9460   -12.8770    23.0500 ce         1 00I       0.625800
     76 CD          11.6710   -16.9890    21.4090 c          1 00I       0.723000
@<TRIPOS>BOND
     1     1     3 2   
     2     1     6 1   
     3     1    16 1   
     4     2     4 1   
     5     2    16 1   
     6     2    39 1   
     7     4     7 1   
     8     4    21 2   
     9     4    24 2   
    10     5     7 ar  
    11     5    15 ar  
    12     5    40 1   
    13     6    29 1   
    14     6    41 1   
    15     7     9 ar  
    16     8    22 1   
    17     8    23 1   
    18     8    28 1   
    19     9    10 ar  
    20     9    42 1   
    21    10    20 ar  
    22    10    43 1   
    23    11    12 ar  
    24    11    20 ar  
    25    11    44 1   
    26    12    13 ar  
    27    12    45 1   
    28    13    14 ar  
    29    13    46 1   
    30    14    15 ar  
    31    14    47 1   
    32    15    20 ar  
    33    16    17 1   
    34    16    48 1   
    35    17    18 1   
    36    17    49 1   
    37    17    50 1   
    38    18    52 1   
    39    18    53 1   
    40    18    76 1   
    41    19    33 ar  
    42    19    35 ar  
    43    19    75 1   
    44    22    29 1   
    45    22    74 2   
    46    23    25 1   
    47    23    54 1   
    48    23    55 1   
    49    25    26 1   
    50    25    56 1   
    51    25    57 1   
    52    26    27 1   
    53    26    58 1   
    54    26    59 1   
    55    27    28 1   
    56    27    60 1   
    57    27    61 1   
    58    28    62 1   
    59    28    63 1   
    60    29    30 1   
    61    29    64 1   
    62    30    36 1   
    63    30    65 1   
    64    30    66 1   
    65    31    33 ar  
    66    31    36 ar  
    67    31    67 1   
    68    32    35 ar  
    69    32    36 ar  
    70    32    68 1   
    71    33    69 1   
    72    34    76 1   
    73    35    70 1   
    74    37    71 1   
    75    37    75 2   
    76    38    72 1   
    77    38    73 1   
    78    38    75 1   
    79    51    76 1   
@<TRIPOS>SUBSTRUCTURE
     1 00I         1 TEMP              0 ****  ****    0 ROOT
