@<TRIPOS>MOLECULE
00I
   76    79     1     0     0
SMALL
abcg2


@<TRIPOS>ATOM
      1 C           16.2130   -14.9270    22.0470 c          1 00I       0.582100
      2 N           16.1340   -17.0520    23.2970 n7         1 00I      -0.889300
      3 O           16.5790   -14.3100    23.0330 o          1 00I      -0.627100
      4 S           17.3900   -18.0890    23.2660 sy         1 00I       1.177600
      5 C1          19.0560   -16.3010    24.4580 ca         1 00I       0.025000
      6 N1          16.2220   -14.4330    20.7960 ns         1 00I      -0.494900
      7 C2          18.9070   -17.1730    23.4130 ca         1 00I      -0.288500
      8 N2          18.9440   -12.6590    19.9030 n          1 00I      -0.398800
      9 C3          19.9660   -17.4430    22.5240 ca         1 00I      -0.022000
     10 C4          21.1730   -16.8300    22.7160 ca         1 00I      -0.127000
     11 C5          22.6050   -15.2690    23.9910 ca         1 00I      -0.115000
     12 C6          22.7510   -14.3710    25.0120 ca         1 00I      -0.097000
     13 C7          21.6710   -14.0880    25.8770 ca         1 00I      -0.127000
     14 C8          20.4680   -14.7130    25.7060 ca         1 00I      -0.076000
     15 C9          20.2870   -15.6440    24.6560 ca         1 00I      -0.063000
     16 CA          15.6360   -16.3390    22.1420 c3         1 00I       0.152500
     17 CB          14.1050   -16.2660    22.2110 c3         1 00I      -0.050400
     18 CG          13.4470   -17.6330    22.1230 c3         1 00I      -0.211400
     19 CZ          12.0080   -12.4880    22.5110 ca         1 00I      -0.178900
     20 C10         21.3690   -15.9230    23.7820 ca         1 00I      -0.001000
     21 O1S         17.3930   -18.7240    21.9570 o          1 00I      -0.539500
     22 C21         17.7410   -13.0990    19.4920 c          1 00I       0.590100
     23 C22         20.0910   -12.7540    19.0080 c6         1 00I       0.095500
     24 O2S         17.2750   -18.8940    24.4700 o          1 00I      -0.539500
     25 C32         21.0560   -13.8310    19.4880 c6         1 00I      -0.100400
     26 C42         21.4900   -13.5590    20.9240 c6         1 00I      -0.072400
     27 C52         20.2770   -13.3740    21.8280 c6         1 00I      -0.100400
     28 C62         19.3330   -12.3180    21.2660 c6         1 00I       0.095500
     29 CA1         16.5540   -13.0680    20.4580 c3         1 00I       0.040700
     30 CB1         15.3630   -12.3510    19.8080 c3         1 00I      -0.038100
     31 CD1         13.0640   -13.1560    20.4480 ca         1 00I      -0.112500
     32 CD2         14.1700   -11.6100    21.8960 ca         1 00I      -0.112500
     33 CE1         11.9980   -13.2260    21.3320 ca         1 00I      -0.078000
     34 OE1         11.3600   -16.6400    22.7370 o          1 00I      -0.740000
     35 CE2         13.1020   -11.6640    22.7760 ca         1 00I      -0.078000
     36 CG1         14.1720   -12.3610    20.7220 ca         1 00I      -0.088300
     37 NG1         10.2900   -13.7090    23.7590 n2         1 00I      -0.820100
     38 NG2         10.5370   -11.4520    24.1100 nv         1 00I      -1.045200
     39 HN          15.9100   -16.6670    24.2070 hn         1 00I       0.510000
     40 H1          18.2420   -16.0950    25.1420 ha         1 00I       0.127000
     41 HN1         15.9110   -15.0260    20.0400 hn         1 00I       0.333500
     42 H3          19.8310   -18.1320    21.7030 ha         1 00I       0.140000
     43 H4          21.9950   -17.0350    22.0410 ha         1 00I       0.111000
     44 H5          23.4320   -15.4850    23.3260 ha         1 00I       0.111000
     45 H6          23.6990   -13.8730    25.1630 ha         1 00I       0.108000
     46 H7          21.8030   -13.3730    26.6780 ha         1 00I       0.111000
     47 H8          19.6390   -14.5000    26.3700 ha         1 00I       0.120000
     48 HA          15.9160   -16.9060    21.2510 h1         1 00I       0.086700
     49 HB          13.8120   -15.7550    23.1320 hc         1 00I       0.054200
     50 HBA         13.7550   -15.6370    21.3910 hc         1 00I       0.054200
     51 OE2         11.3290   -18.5970    21.6750 o          1 00I      -0.740000
     52 HG          13.8020   -18.2660    22.9440 hc         1 00I       0.030200
     53 HGA         13.7680   -18.1360    21.2060 hc         1 00I       0.030200
     54 H22         19.7470   -12.9500    17.9970 h1         1 00I       0.054200
     55 H22A        20.5950   -11.7820    19.0040 h1         1 00I       0.054200
     56 H32         20.5660   -14.8070    19.4230 hc         1 00I       0.054200
     57 H32A        21.9210   -13.8610    18.8220 hc         1 00I       0.054200
     58 H42         22.1190   -14.3710    21.2930 hc         1 00I       0.036200
     59 H42A        22.1020   -12.6520    20.9510 hc         1 00I       0.036200
     60 H52         19.7330   -14.3180    21.9260 hc         1 00I       0.054200
     61 H52A        20.5860   -13.0800    22.8340 hc         1 00I       0.054200
     62 H62         19.8340   -11.3460    21.2380 h1         1 00I       0.054200
     63 H62A        18.4690   -12.2090    21.9120 h1         1 00I       0.054200
     64 HA1         16.7810   -12.5570    21.3880 h1         1 00I       0.087700
     65 HB1         15.6640   -11.3250    19.5800 hc         1 00I       0.059700
     66 HB1A        15.1140   -12.8320    18.8610 hc         1 00I       0.059700
     67 HD1         13.0370   -13.7380    19.5340 ha         1 00I       0.108000
     68 HD2         15.0180   -10.9770    22.1310 ha         1 00I       0.108000
     69 HE1         11.1530   -13.8600    21.0950 ha         1 00I       0.130000
     70 HE2         13.1340   -11.0810    23.6870 ha         1 00I       0.130000
     71 HNG1        10.7350   -14.4990    23.3020 hn         1 00I       0.461400
     72 HNG2        10.6620   -10.5860    23.6130 hn         1 00I       0.452500
     73 HNGA         9.7000   -11.4880    24.6700 hn         1 00I       0.452500
     74 O1          17.5430   -13.5320    18.3620 o          1 00I      -0.616100
     75 CF          10.8820   -12.6130    23.4780 ce         1 00I       0.625800
     76 CD          11.9070   -17.6140    22.1750 c          1 00I       0.723000
@<TRIPOS>BOND
     1     1     3 2   
     2     1     6 1   
     3     1    16 1   
     4     2     4 1   
     5     2    16 1   
     6     2    39 1   
     7     4     7 1   
     8     4    21 2   
     9     4    24 2   
    10     5     7 ar  
    11     5    15 ar  
    12     5    40 1   
    13     6    29 1   
    14     6    41 1   
    15     7     9 ar  
    16     8    22 1   
    17     8    23 1   
    18     8    28 1   
    19     9    10 ar  
    20     9    42 1   
    21    10    20 ar  
    22    10    43 1   
    23    11    12 ar  
    24    11    20 ar  
    25    11    44 1   
    26    12    13 ar  
    27    12    45 1   
    28    13    14 ar  
    29    13    46 1   
    30    14    15 ar  
    31    14    47 1   
    32    15    20 ar  
    33    16    17 1   
    34    16    48 1   
    35    17    18 1   
    36    17    49 1   
    37    17    50 1   
    38    18    52 1   
    39    18    53 1   
    40    18    76 1   
    41    19    33 ar  
    42    19    35 ar  
    43    19    75 1   
    44    22    29 1   
    45    22    74 2   
    46    23    25 1   
    47    23    54 1   
    48    23    55 1   
    49    25    26 1   
    50    25    56 1   
    51    25    57 1   
    52    26    27 1   
    53    26    58 1   
    54    26    59 1   
    55    27    28 1   
    56    27    60 1   
    57    27    61 1   
    58    28    62 1   
    59    28    63 1   
    60    29    30 1   
    61    29    64 1   
    62    30    36 1   
    63    30    65 1   
    64    30    66 1   
    65    31    33 ar  
    66    31    36 ar  
    67    31    67 1   
    68    32    35 ar  
    69    32    36 ar  
    70    32    68 1   
    71    33    69 1   
    72    34    76 1   
    73    35    70 1   
    74    37    71 1   
    75    37    75 2   
    76    38    72 1   
    77    38    73 1   
    78    38    75 1   
    79    51    76 1   
@<TRIPOS>SUBSTRUCTURE
     1 00I         1 TEMP              0 ****  ****    0 ROOT
