@<TRIPOS>MOLECULE
00J
   61    65     1     0     0
SMALL
No Charge or Current Charge


@<TRIPOS>ATOM
      1 O30         -9.1320    -0.1800     0.6190 o          1 00J      -0.604100
      2 C26         -7.9430    -0.4450     0.5120 c          1 00J       0.640300
      3 N28         -7.4770    -1.7170     0.7190 ns         1 00J      -0.500900
      4 C2          -8.3160    -2.8600     1.0850 c3         1 00J       0.091300
      5 C25         -6.9000     0.5500     0.1490 cc         1 00J      -0.228400
      6 C21         -5.4440     0.4240    -0.0020 ca         1 00J      -0.090800
      7 C6          -4.5450    -0.6480     0.1700 ca         1 00J      -0.063000
      8 C24         -4.9700     1.6680    -0.3680 ca         1 00J       0.061100
      9 O31         -6.0010     2.5450    -0.4500 os         1 00J      -0.169200
     10 C17         -7.1620     1.8880    -0.1380 cd         1 00J       0.122900
     11 C1          -8.4490     2.6690    -0.1680 c3         1 00J      -0.045900
     12 C10         -3.6180     1.9350    -0.5980 ca         1 00J      -0.096000
     13 C19         -2.7090     0.8710    -0.4510 ca         1 00J       0.106100
     14 C4          -3.1710    -0.4110    -0.0570 ca         1 00J      -0.134000
     15 O34         -1.3700     1.1100    -0.6590 os         1 00J      -0.247200
     16 C22         -0.5260     0.1860    -1.2370 ca         1 00J       0.200100
     17 C7          -0.9470    -0.5720    -2.3370 ca         1 00J      -0.276000
     18 C20          0.7850     0.0130    -0.7550 ca         1 00J      -0.137000
     19 C5           1.2650     0.7590     0.3420 ca         1 00J      -0.031000
     20 C23          1.6210    -0.9360    -1.3910 ca         1 00J       0.326000
     21 N27          1.1980    -1.6690    -2.4460 nb         1 00J      -0.685000
     22 C8          -0.0580    -1.4870    -2.9070 ca         1 00J       0.391900
     23 C9           2.9270    -1.1170    -0.9120 ca         1 00J      -0.148000
     24 C18          3.4110    -0.3800     0.1770 ca         1 00J       0.162100
     25 C3           2.5750     0.5630     0.8070 ca         1 00J      -0.200000
     26 O33          4.7060    -0.6150     0.5890 os         1 00J      -0.325100
     27 C16          5.3060     0.1000     1.6880 c3         1 00J       0.166600
     28 C15          6.7660    -0.3950     1.8770 c3         1 00J       0.169800
     29 N29          7.6830    -0.2220     0.7120 n3         1 00J      -0.702600
     30 C11          9.0110    -0.8760     0.9280 c6         1 00J       0.126300
     31 C12          7.8620     1.2040     0.2850 c6         1 00J       0.126300
     32 C14          8.8240     1.3250    -0.9350 c6         1 00J       0.154100
     33 O32         10.0910     0.6890    -0.6440 os         1 00J      -0.451000
     34 C13          9.9460    -0.7120    -0.3070 c6         1 00J       0.154100
     35 H28         -6.4870    -1.8610     0.5940 hn         1 00J       0.316500
     36 H21C        -9.0660    -3.0330     0.3020 h1         1 00J       0.041033
     37 H22C        -7.6900    -3.7560     1.1910 h1         1 00J       0.041033
     38 H23C        -8.8220    -2.6570     2.0370 h1         1 00J       0.041033
     39 H6          -4.8640    -1.6390     0.4750 ha         1 00J       0.127000
     40 H4          -2.4630    -1.2240     0.0810 ha         1 00J       0.134000
     41 H10         -3.2820     2.9280    -0.8820 ha         1 00J       0.150000
     42 H11C        -8.9340     2.6610     0.8150 hc         1 00J       0.072367
     43 H12C        -8.2740     3.7140    -0.4460 hc         1 00J       0.072367
     44 H13C        -9.1490     2.2430    -0.8960 hc         1 00J       0.072367
     45 H7          -1.9420    -0.4560    -2.7530 ha         1 00J       0.134000
     46 H8          -0.3550    -2.0930    -3.7620 h4         1 00J       0.016100
     47 H5           0.6290     1.4890     0.8390 ha         1 00J       0.127000
     48 H3           2.9190     1.1500     1.6530 ha         1 00J       0.117000
     49 H9           3.5750    -1.8410    -1.3930 ha         1 00J       0.149000
     50 H161         5.3030     1.1800     1.5000 h1         1 00J       0.035200
     51 H162         4.7480    -0.0870     2.6140 h1         1 00J       0.035200
     52 H151         7.1840     0.1240     2.7510 h1         1 00J       0.042700
     53 H152         6.7160    -1.4600     2.1430 h1         1 00J       0.042700
     54 H111         9.5110    -0.4430     1.8070 h1         1 00J       0.039950
     55 H112         8.8780    -1.9500     1.1280 h1         1 00J       0.039950
     56 H121         6.8970     1.6490     0.0040 h1         1 00J       0.039950
     57 H122         8.2660     1.8030     1.1140 h1         1 00J       0.039950
     58 H131        10.9360    -1.1350    -0.0870 h1         1 00J       0.052450
     59 H132         9.5270    -1.2510    -1.1700 h1         1 00J       0.052450
     60 H141         8.3730     0.8490    -1.8170 h1         1 00J       0.052450
     61 H142         8.9980     2.3850    -1.1700 h1         1 00J       0.052450
@<TRIPOS>BOND
     1     1     2 2   
     2     2     3 1   
     3     2     5 1   
     4     3     4 1   
     5     3    35 1   
     6     4    36 1   
     7     4    37 1   
     8     4    38 1   
     9     5     6 1   
    10     5    10 2   
    11     6     7 ar  
    12     6     8 ar  
    13     7    14 ar  
    14     7    39 1   
    15     8     9 1   
    16     8    12 ar  
    17     9    10 1   
    18    10    11 1   
    19    11    42 1   
    20    11    43 1   
    21    11    44 1   
    22    12    13 ar  
    23    12    41 1   
    24    13    14 ar  
    25    13    15 1   
    26    14    40 1   
    27    15    16 1   
    28    16    17 ar  
    29    16    18 ar  
    30    17    22 ar  
    31    17    45 1   
    32    18    19 ar  
    33    18    20 ar  
    34    19    25 ar  
    35    19    47 1   
    36    20    21 ar  
    37    20    23 ar  
    38    21    22 ar  
    39    22    46 1   
    40    23    24 ar  
    41    23    49 1   
    42    24    25 ar  
    43    24    26 1   
    44    25    48 1   
    45    26    27 1   
    46    27    28 1   
    47    27    50 1   
    48    27    51 1   
    49    28    29 1   
    50    28    52 1   
    51    28    53 1   
    52    29    30 1   
    53    29    31 1   
    54    30    34 1   
    55    30    54 1   
    56    30    55 1   
    57    31    32 1   
    58    31    56 1   
    59    31    57 1   
    60    32    33 1   
    61    32    60 1   
    62    32    61 1   
    63    33    34 1   
    64    34    58 1   
    65    34    59 1   
@<TRIPOS>SUBSTRUCTURE
     1 00J         1 TEMP              0 ****  ****    0 ROOT
