@<TRIPOS>MOLECULE
00J
   61    65     1     0     0
SMALL
abcg2


@<TRIPOS>ATOM
      1 O30         -9.1110     0.2710     0.5800 o          1 00J      -0.604100
      2 C26         -8.0380    -0.2160     0.2470 c          1 00J       0.640300
      3 N28         -7.8700    -1.5370     0.0620 ns         1 00J      -0.500900
      4 C2          -8.9590    -2.4750     0.2010 c3         1 00J       0.091300
      5 C25         -6.8310     0.6060     0.0280 cc         1 00J      -0.228400
      6 C21         -5.4460     0.2430     0.2180 ca         1 00J      -0.090800
      7 C6          -4.7500    -0.8710     0.6890 ca         1 00J      -0.063000
      8 C24         -4.7210     1.3780    -0.1400 ca         1 00J       0.061100
      9 O31         -5.5610     2.3630    -0.5220 os         1 00J      -0.169200
     10 C17         -6.8280     1.8940    -0.4100 cd         1 00J       0.122900
     11 C1          -7.8990     2.8370    -0.7900 c3         1 00J      -0.045900
     12 C10         -3.3420     1.4680    -0.0920 ca         1 00J      -0.096000
     13 C19         -2.6880     0.3400     0.3670 ca         1 00J       0.106100
     14 C4          -3.3700    -0.8140     0.7590 ca         1 00J      -0.134000
     15 O34         -1.3180     0.3890     0.4950 os         1 00J      -0.247200
     16 C22         -0.5450    -0.2680    -0.3900 ca         1 00J       0.200100
     17 C7          -1.0040    -0.8680    -1.5340 ca         1 00J      -0.276000
     18 C20          0.8400    -0.3110    -0.0880 ca         1 00J      -0.137000
     19 C5           1.4080     0.2810     1.0560 ca         1 00J      -0.031000
     20 C23          1.6860    -0.9980    -0.9960 ca         1 00J       0.326000
     21 N27          1.2180    -1.5890    -2.1260 nb         1 00J      -0.685000
     22 C8          -0.0630    -1.5110    -2.3600 ca         1 00J       0.391900
     23 C9           3.0630    -1.0750    -0.7260 ca         1 00J      -0.148000
     24 C18          3.5970    -0.4940     0.4030 ca         1 00J       0.162100
     25 C3           2.7530     0.2000     1.3000 ca         1 00J      -0.200000
     26 O33          4.9190    -0.6300     0.5880 os         1 00J      -0.325100
     27 C16          5.5450     0.0290     1.6770 c3         1 00J       0.166600
     28 C15          7.0140    -0.3320     1.6770 c3         1 00J       0.169800
     29 N29          7.7050    -0.0310     0.4420 n3         1 00J      -0.702600
     30 C11          9.0560    -0.5630     0.4680 c6         1 00J       0.126300
     31 C12          7.7390     1.3850     0.1270 c6         1 00J       0.126300
     32 C14          8.4680     1.6070    -1.1850 c6         1 00J       0.154100
     33 O32          9.7750     1.0780    -1.1570 os         1 00J      -0.451000
     34 C13          9.7500    -0.2990    -0.8540 c6         1 00J       0.154100
     35 H28         -7.0320    -1.8630    -0.3890 hn         1 00J       0.316500
     36 H21C        -9.7190    -2.3420    -0.5700 h1         1 00J       0.041033
     37 H22C        -8.5570    -3.4810     0.1190 h1         1 00J       0.041033
     38 H23C        -9.4380    -2.3770     1.1750 h1         1 00J       0.041033
     39 H6          -5.2630    -1.7650     1.0160 ha         1 00J       0.127000
     40 H4          -2.8140    -1.6630     1.1320 ha         1 00J       0.134000
     41 H10         -2.8080     2.3630    -0.3820 ha         1 00J       0.150000
     42 H11C        -7.9880     3.6380    -0.0520 hc         1 00J       0.072367
     43 H12C        -7.6850     3.2990    -1.7540 hc         1 00J       0.072367
     44 H13C        -8.8560     2.3290    -0.8490 hc         1 00J       0.072367
     45 H7          -2.0450    -0.8630    -1.8200 ha         1 00J       0.134000
     46 H8          -0.4210    -1.9840    -3.2690 h4         1 00J       0.016100
     47 H5           0.7830     0.8120     1.7620 ha         1 00J       0.127000
     48 H3           3.1460     0.6680     2.1920 ha         1 00J       0.117000
     49 H9           3.7000    -1.6050    -1.4230 ha         1 00J       0.149000
     50 H161         5.3960     1.1110     1.6030 h1         1 00J       0.035200
     51 H162         5.1190    -0.2950     2.6320 h1         1 00J       0.035200
     52 H151         7.4640     0.1800     2.5450 h1         1 00J       0.042700
     53 H152         7.1130    -1.4040     1.8670 h1         1 00J       0.042700
     54 H111         9.6520    -0.1250     1.2880 h1         1 00J       0.039950
     55 H112         9.0180    -1.6410     0.6400 h1         1 00J       0.039950
     56 H121         6.7240     1.7720     0.0120 h1         1 00J       0.039950
     57 H122         8.2230     1.9710     0.9280 h1         1 00J       0.039950
     58 H131        10.7840    -0.6430    -0.8080 h1         1 00J       0.052450
     59 H132         9.2420    -0.8590    -1.6510 h1         1 00J       0.052450
     60 H141         7.8880     1.1510    -2.0000 h1         1 00J       0.052450
     61 H142         8.5520     2.6750    -1.3890 h1         1 00J       0.052450
@<TRIPOS>BOND
     1     1     2 2   
     2     2     3 1   
     3     2     5 1   
     4     3     4 1   
     5     3    35 1   
     6     4    36 1   
     7     4    37 1   
     8     4    38 1   
     9     5     6 1   
    10     5    10 2   
    11     6     7 ar  
    12     6     8 ar  
    13     7    14 ar  
    14     7    39 1   
    15     8     9 1   
    16     8    12 ar  
    17     9    10 1   
    18    10    11 1   
    19    11    42 1   
    20    11    43 1   
    21    11    44 1   
    22    12    13 ar  
    23    12    41 1   
    24    13    14 ar  
    25    13    15 1   
    26    14    40 1   
    27    15    16 1   
    28    16    17 ar  
    29    16    18 ar  
    30    17    22 ar  
    31    17    45 1   
    32    18    19 ar  
    33    18    20 ar  
    34    19    25 ar  
    35    19    47 1   
    36    20    21 ar  
    37    20    23 ar  
    38    21    22 ar  
    39    22    46 1   
    40    23    24 ar  
    41    23    49 1   
    42    24    25 ar  
    43    24    26 1   
    44    25    48 1   
    45    26    27 1   
    46    27    28 1   
    47    27    50 1   
    48    27    51 1   
    49    28    29 1   
    50    28    52 1   
    51    28    53 1   
    52    29    30 1   
    53    29    31 1   
    54    30    34 1   
    55    30    54 1   
    56    30    55 1   
    57    31    32 1   
    58    31    56 1   
    59    31    57 1   
    60    32    33 1   
    61    32    60 1   
    62    32    61 1   
    63    33    34 1   
    64    34    58 1   
    65    34    59 1   
@<TRIPOS>SUBSTRUCTURE
     1 00J         1 TEMP              0 ****  ****    0 ROOT
