@<TRIPOS>MOLECULE
00K
   82    85     1     0     0
SMALL
abcg2


@<TRIPOS>ATOM
      1 C1          17.4060   -13.3980    21.1640 c5         1 00K       0.034700
      2 N1          18.7390   -15.3450    21.0070 n3         1 00K      -0.410600
      3 O1          15.7720   -14.7450    22.8880 o          1 00K      -0.596000
      4 C2          18.6400   -13.1420    20.2820 c5         1 00K      -0.078400
      5 N2          17.6160   -14.7480    21.6400 n          1 00K      -0.276200
      6 C3          19.6110   -14.2070    20.7570 c5         1 00K       0.123800
      7 N3          15.9030   -17.6280    22.6860 n8         1 00K      -0.997200
      8 C4          19.3230   -16.3610    21.8560 c6         1 00K       0.123800
      9 C5          18.2640   -17.3850    22.2110 c6         1 00K      -0.066400
     10 C6          17.0600   -16.7780    22.9410 c6         1 00K       0.129200
     11 C7          16.7700   -15.3420    22.4820 c          1 00K       0.537000
     12 C8          16.1130   -13.2870    20.3630 c          1 00K       0.614100
     13 C9          17.2520   -16.7670    24.4760 c3         1 00K      -0.026100
     14 C10         18.4500   -16.0140    24.9800 ca         1 00K      -0.081300
     15 C11         18.4390   -14.6240    25.0900 ca         1 00K      -0.108000
     16 C12         19.5720   -13.9320    25.4940 ca         1 00K      -0.114000
     17 C13         20.7370   -14.6210    25.8080 ca         1 00K      -0.112000
     18 C14         20.7530   -16.0070    25.7280 ca         1 00K      -0.114000
     19 C15         19.6170   -16.6940    25.3220 ca         1 00K      -0.108000
     20 C           14.5940   -10.6410    18.7710 c3         1 00K       0.067300
     21 N           15.4720   -12.1210    20.5140 ns         1 00K      -0.494900
     22 CA          14.2740   -11.7440    19.8020 c3         1 00K       0.119700
     23 CB          13.1930   -11.3080    20.7910 c3         1 00K      -0.082400
     24 CD          11.6950   -11.9750    22.7190 c3         1 00K      -0.076400
     25 CE          11.2710   -13.0850    23.6690 c3         1 00K       0.147800
     26 CG          12.7660   -12.4250    21.7350 c3         1 00K      -0.080400
     27 CX          15.7440   -11.0840    17.8600 c          1 00K       0.570100
     28 OX          16.9100   -10.8840    18.1740 o          1 00K      -0.622100
     29 NZ          10.2520   -12.6190    24.6000 n8         1 00K      -0.998200
     30 C1X         16.2850   -12.2390    15.7510 c6         1 00K       0.116700
     31 C6X         15.6700   -12.1560    14.3550 c6         1 00K      -0.088400
     32 C5X         14.5050   -13.1260    14.1610 c6         1 00K      -0.074900
     33 C4X         14.9060   -14.5550    14.5130 c6         1 00K      -0.077400
     34 C3X         15.4950   -14.6390    15.9170 c6         1 00K      -0.074900
     35 C2X         16.6720   -13.6830    16.0790 c6         1 00K      -0.088400
     36 NX          15.3620   -11.6990    16.7350 ns         1 00K      -0.488900
     37 H1          17.3950   -12.7180    22.0200 h1         1 00K       0.065700
     38 H2          18.4060   -13.2840    19.2270 hc         1 00K       0.075700
     39 H2A         19.0240   -12.1330    20.4110 hc         1 00K       0.075700
     40 H3          20.3570   -14.4710    20.0090 h1         1 00K       0.056200
     41 H3A         20.1290   -13.8840    21.6720 h1         1 00K       0.056200
     42 HN3         15.0780   -17.2200    23.1110 hn         1 00K       0.414500
     43 HN3A        15.7160   -17.6710    21.6910 hn         1 00K       0.414500
     44 H4          20.1230   -16.8360    21.2870 h1         1 00K       0.056200
     45 H4A         19.7750   -15.9190    22.7530 h1         1 00K       0.056200
     46 H5          17.9190   -17.8520    21.2840 hc         1 00K       0.064200
     47 H5A         18.6990   -18.1810    22.8180 hc         1 00K       0.064200
     48 H9          16.3420   -16.3660    24.9290 hc         1 00K       0.066700
     49 H9A         17.3230   -17.8140    24.7820 hc         1 00K       0.066700
     50 H11         17.5360   -14.0720    24.8580 ha         1 00K       0.118000
     51 H12         19.5440   -12.8520    25.5680 ha         1 00K       0.112000
     52 H13         21.6220   -14.0820    26.1210 ha         1 00K       0.112000
     53 H14         21.6510   -16.5550    25.9830 ha         1 00K       0.112000
     54 H15         19.6410   -17.7760    25.2580 ha         1 00K       0.118000
     55 HN          15.8430   -11.4510    21.1700 hn         1 00K       0.315500
     56 HO          13.5140    -9.5750    17.5550 ho         1 00K       0.453000
     57 HA          13.9270   -12.6270    19.2590 h1         1 00K       0.095700
     58 HB          13.5630   -10.4520    21.3670 hc         1 00K       0.048700
     59 HD          10.8180   -11.6110    22.1770 hc         1 00K       0.041700
     60 HDA         12.0740   -11.1270    23.3010 hc         1 00K       0.041700
     61 HE          10.8510   -13.9100    23.0880 h1         1 00K       0.031200
     62 HG          12.3900   -13.2690    21.1470 hc         1 00K       0.053200
     63 HNZ          9.9750   -13.3820    25.2050 hn         1 00K       0.390000
     64 H40         14.9430    -9.7520    19.3130 h1         1 00K       0.058700
     65 H41         12.3240   -10.9530    20.2360 hc         1 00K       0.048700
     66 H42         12.1680   -13.4860    24.1660 h1         1 00K       0.031200
     67 H43         13.6310   -12.8000    22.2890 hc         1 00K       0.053200
     68 H44         10.6560   -11.9210    25.2120 hn         1 00K       0.390000
     69 H6X         16.4550   -12.3960    13.6320 hc         1 00K       0.049700
     70 H5X         14.1590   -13.0740    13.1260 hc         1 00K       0.043200
     71 H4X         15.6520   -14.9070    13.7910 hc         1 00K       0.038700
     72 H3X         15.8170   -15.6600    16.1330 hc         1 00K       0.043200
     73 H2X         17.4800   -13.9810    15.4020 hc         1 00K       0.049700
     74 HNX         14.3700   -11.7930    16.5770 hn         1 00K       0.328500
     75 H1X         17.1810   -11.6150    15.7760 h1         1 00K       0.068700
     76 H2XA        17.0780   -13.7380    17.0910 hc         1 00K       0.049700
     77 H3XA        14.7230   -14.4020    16.6570 hc         1 00K       0.043200
     78 H4XA        14.0450   -15.2220    14.4210 hc         1 00K       0.038700
     79 H5XA        13.6480   -12.8250    14.7730 hc         1 00K       0.043200
     80 H6XA        15.3570   -11.1300    14.1470 hc         1 00K       0.049700
     81 O2          15.7500   -14.1850    19.6210 o          1 00K      -0.591100
     82 O           13.4100   -10.3890    18.0610 oh         1 00K      -0.656000
@<TRIPOS>BOND
     1     1     4 1   
     2     1     5 1   
     3     1    12 1   
     4     1    37 1   
     5     2     5 1   
     6     2     6 1   
     7     2     8 1   
     8     3    11 2   
     9     4     6 1   
    10     4    38 1   
    11     4    39 1   
    12     5    11 1   
    13     6    40 1   
    14     6    41 1   
    15     7    10 1   
    16     7    42 1   
    17     7    43 1   
    18     8     9 1   
    19     8    44 1   
    20     8    45 1   
    21     9    10 1   
    22     9    46 1   
    23     9    47 1   
    24    10    11 1   
    25    10    13 1   
    26    12    21 1   
    27    12    81 2   
    28    13    14 1   
    29    13    48 1   
    30    13    49 1   
    31    14    15 ar  
    32    14    19 ar  
    33    15    16 ar  
    34    15    50 1   
    35    16    17 ar  
    36    16    51 1   
    37    17    18 ar  
    38    17    52 1   
    39    18    19 ar  
    40    18    53 1   
    41    19    54 1   
    42    20    22 1   
    43    20    27 1   
    44    20    64 1   
    45    20    82 1   
    46    21    22 1   
    47    21    55 1   
    48    22    23 1   
    49    22    57 1   
    50    23    26 1   
    51    23    58 1   
    52    23    65 1   
    53    24    25 1   
    54    24    26 1   
    55    24    59 1   
    56    24    60 1   
    57    25    29 1   
    58    25    61 1   
    59    25    66 1   
    60    26    62 1   
    61    26    67 1   
    62    27    28 2   
    63    27    36 1   
    64    29    63 1   
    65    29    68 1   
    66    30    31 1   
    67    30    35 1   
    68    30    36 1   
    69    30    75 1   
    70    31    32 1   
    71    31    69 1   
    72    31    80 1   
    73    32    33 1   
    74    32    70 1   
    75    32    79 1   
    76    33    34 1   
    77    33    71 1   
    78    33    78 1   
    79    34    35 1   
    80    34    72 1   
    81    34    77 1   
    82    35    73 1   
    83    35    76 1   
    84    36    74 1   
    85    56    82 1   
@<TRIPOS>SUBSTRUCTURE
     1 00K         1 TEMP              0 ****  ****    0 ROOT
