@<TRIPOS>MOLECULE
00K
   82    85     1     0     0
SMALL
No Charge or Current Charge


@<TRIPOS>ATOM
      1 C1          17.0760   -13.7030    20.9500 c5         1 00K       0.034700
      2 N1          18.4400   -15.7350    20.9590 n3         1 00K      -0.410600
      3 O1          15.5770   -14.9310    23.0150 o          1 00K      -0.596000
      4 C2          18.1950   -13.6780    19.8610 c5         1 00K      -0.078400
      5 N2          17.3180   -15.0540    21.5070 n          1 00K      -0.276200
      6 C3          19.2700   -14.6010    20.4930 c5         1 00K       0.123800
      7 N3          15.7350   -17.9100    23.1480 n8         1 00K      -0.997200
      8 C4          19.1220   -16.6580    21.8850 c6         1 00K       0.123800
      9 C5          18.0960   -17.6720    22.4330 c6         1 00K      -0.066400
     10 C6          16.9190   -16.9820    23.1980 c6         1 00K       0.129200
     11 C7          16.5320   -15.5700    22.5770 c          1 00K       0.537000
     12 C8          15.6910   -13.5000    20.2650 c          1 00K       0.614100
     13 C9          17.2540   -16.7650    24.7190 c3         1 00K      -0.026100
     14 C10         18.5170   -15.9570    25.0150 ca         1 00K      -0.081300
     15 C11         18.5000   -14.5490    24.9480 ca         1 00K      -0.108000
     16 C12         19.6700   -13.8110    25.2000 ca         1 00K      -0.114000
     17 C13         20.8630   -14.4750    25.5290 ca         1 00K      -0.112000
     18 C14         20.8850   -15.8770    25.6110 ca         1 00K      -0.114000
     19 C15         19.7160   -16.6150    25.3580 ca         1 00K      -0.108000
     20 C           14.4810   -10.3710    18.7230 c3         1 00K       0.067300
     21 N           15.4020   -12.1490    20.2260 ns         1 00K      -0.494900
     22 CA          14.1710   -11.5730    19.6630 c3         1 00K       0.119700
     23 CB          13.1750   -11.2030    20.7950 c3         1 00K      -0.082400
     24 CD          11.7230   -11.9950    22.7770 c3         1 00K      -0.076400
     25 CE          11.3420   -13.1710    23.6990 c3         1 00K       0.147800
     26 CG          12.7790   -12.3820    21.7180 c3         1 00K      -0.080400
     27 CX          15.6860   -10.6700    17.7790 c          1 00K       0.570100
     28 OX          16.8230   -10.2750    18.0040 o          1 00K      -0.622100
     29 NZ          10.3290   -12.7730    24.6950 n8         1 00K      -0.998200
     30 C1X         16.2980   -11.7560    15.5690 c6         1 00K       0.116700
     31 C6X         15.5160   -12.1180    14.2770 c6         1 00K      -0.088400
     32 C5X         14.6650   -13.4070    14.4430 c6         1 00K      -0.074900
     33 C4X         15.5380   -14.6000    14.9050 c6         1 00K      -0.077400
     34 C3X         16.3250   -14.2560    16.1930 c6         1 00K      -0.074900
     35 C2X         17.1670   -12.9680    16.0020 c6         1 00K      -0.088400
     36 NX          15.3650   -11.3620    16.6330 ns         1 00K      -0.488900
     37 H1          17.2340   -12.9380    21.7220 h1         1 00K       0.065700
     38 H2          17.8440   -14.1040    18.9150 hc         1 00K       0.075700
     39 H2A         18.5650   -12.6680    19.6530 hc         1 00K       0.075700
     40 H3          20.0360   -14.9130    19.7710 h1         1 00K       0.056200
     41 H3A         19.7710   -14.0990    21.3330 h1         1 00K       0.056200
     42 HN3         14.9260   -17.4120    23.5380 hn         1 00K       0.414500
     43 HN3A        15.4640   -18.0470    22.1680 hn         1 00K       0.414500
     44 H4          19.9220   -17.1990    21.3580 h1         1 00K       0.056200
     45 H4A         19.5950   -16.1020    22.7040 h1         1 00K       0.056200
     46 H5          17.7050   -18.2450    21.5820 hc         1 00K       0.064200
     47 H5A         18.6000   -18.4020    23.0810 hc         1 00K       0.064200
     48 H9          16.4050   -16.2830    25.2180 hc         1 00K       0.066700
     49 H9A         17.3410   -17.7430    25.2080 hc         1 00K       0.066700
     50 H11         17.5820   -14.0210    24.7000 ha         1 00K       0.118000
     51 H12         19.6500   -12.7250    25.1420 ha         1 00K       0.112000
     52 H13         21.7680   -13.9040    25.7240 ha         1 00K       0.112000
     53 H14         21.8080   -16.3920    25.8690 ha         1 00K       0.112000
     54 H15         19.7460   -17.7010    25.4190 ha         1 00K       0.118000
     55 HN          16.0900   -11.5210    20.6240 hn         1 00K       0.315500
     56 HO          13.4580    -9.1200    17.5610 ho         1 00K       0.453000
     57 HA          13.6920   -12.3420    19.0410 h1         1 00K       0.095700
     58 HB          13.6080   -10.4010    21.4070 hc         1 00K       0.048700
     59 HD          10.8230   -11.6270    22.2690 hc         1 00K       0.041700
     60 HDA         12.1110   -11.1680    23.3850 hc         1 00K       0.041700
     61 HE          10.9390   -13.9970    23.0970 h1         1 00K       0.031200
     62 HG          12.3890   -13.2050    21.1050 hc         1 00K       0.053200
     63 HNZ         10.1530   -13.5640    25.3270 hn         1 00K       0.390000
     64 H40         14.8010    -9.5320    19.3560 h1         1 00K       0.058700
     65 H41         12.2620   -10.7940    20.3450 hc         1 00K       0.048700
     66 H42         12.2360   -13.5310    24.2280 h1         1 00K       0.031200
     67 H43         13.6700   -12.7610    22.2340 hc         1 00K       0.053200
     68 H44         10.7310   -12.0570    25.3110 hn         1 00K       0.390000
     69 H6X         16.2280   -12.2570    13.4510 hc         1 00K       0.049700
     70 H5X         14.1760   -13.6540    13.4900 hc         1 00K       0.043200
     71 H4X         16.2410   -14.8740    14.1060 hc         1 00K       0.038700
     72 H3X         16.9820   -15.0940    16.4630 hc         1 00K       0.043200
     73 H2X         17.9390   -13.1490    15.2410 hc         1 00K       0.049700
     74 HNX         14.3850   -11.5960    16.5240 hn         1 00K       0.328500
     75 H1X         16.9550   -10.8990    15.3580 h1         1 00K       0.068700
     76 H2XA        17.7070   -12.7300    16.9270 hc         1 00K       0.049700
     77 H3XA        15.6270   -14.1280    17.0320 hc         1 00K       0.043200
     78 H4XA        14.9050   -15.4810    15.0780 hc         1 00K       0.038700
     79 H5XA        13.8570   -13.2370    15.1680 hc         1 00K       0.043200
     80 H6XA        14.8700   -11.2790    13.9830 hc         1 00K       0.049700
     81 O2          14.9400   -14.3610    19.8230 o          1 00K      -0.591100
     82 O           13.2860    -9.9920    17.9860 oh         1 00K      -0.656000
@<TRIPOS>BOND
     1     1     4 1   
     2     1     5 1   
     3     1    12 1   
     4     1    37 1   
     5     2     5 1   
     6     2     6 1   
     7     2     8 1   
     8     3    11 2   
     9     4     6 1   
    10     4    38 1   
    11     4    39 1   
    12     5    11 1   
    13     6    40 1   
    14     6    41 1   
    15     7    10 1   
    16     7    42 1   
    17     7    43 1   
    18     8     9 1   
    19     8    44 1   
    20     8    45 1   
    21     9    10 1   
    22     9    46 1   
    23     9    47 1   
    24    10    11 1   
    25    10    13 1   
    26    12    21 1   
    27    12    81 2   
    28    13    14 1   
    29    13    48 1   
    30    13    49 1   
    31    14    15 ar  
    32    14    19 ar  
    33    15    16 ar  
    34    15    50 1   
    35    16    17 ar  
    36    16    51 1   
    37    17    18 ar  
    38    17    52 1   
    39    18    19 ar  
    40    18    53 1   
    41    19    54 1   
    42    20    22 1   
    43    20    27 1   
    44    20    64 1   
    45    20    82 1   
    46    21    22 1   
    47    21    55 1   
    48    22    23 1   
    49    22    57 1   
    50    23    26 1   
    51    23    58 1   
    52    23    65 1   
    53    24    25 1   
    54    24    26 1   
    55    24    59 1   
    56    24    60 1   
    57    25    29 1   
    58    25    61 1   
    59    25    66 1   
    60    26    62 1   
    61    26    67 1   
    62    27    28 2   
    63    27    36 1   
    64    29    63 1   
    65    29    68 1   
    66    30    31 1   
    67    30    35 1   
    68    30    36 1   
    69    30    75 1   
    70    31    32 1   
    71    31    69 1   
    72    31    80 1   
    73    32    33 1   
    74    32    70 1   
    75    32    79 1   
    76    33    34 1   
    77    33    71 1   
    78    33    78 1   
    79    34    35 1   
    80    34    72 1   
    81    34    77 1   
    82    35    73 1   
    83    35    76 1   
    84    36    74 1   
    85    56    82 1   
@<TRIPOS>SUBSTRUCTURE
     1 00K         1 TEMP              0 ****  ****    0 ROOT
