@<TRIPOS>MOLECULE
00L
   84    87     1     0     0
SMALL
abcg2


@<TRIPOS>ATOM
      1 C1          -1.8540     2.4190    -1.0090 c5         1 00L       0.032700
      2 N1          -3.1840     3.4160     0.6390 n3         1 00L      -0.421600
      3 O1          -2.6400    -0.0340    -0.0540 o          1 00L      -0.606000
      4 C2          -1.9560     3.9390    -1.2600 c5         1 00L      -0.078400
      5 N2          -2.8390     2.1830     0.0260 n          1 00L      -0.275200
      6 C3          -3.2030     4.3370    -0.4840 c5         1 00L       0.131800
      7 N3          -3.8200    -0.2000     2.5390 n8         1 00L      -0.994200
      8 C4          -4.4220     3.3220     1.3780 c6         1 00L       0.134800
      9 C5          -4.3320     2.1510     2.3340 c6         1 00L      -0.076400
     10 C6          -4.1910     0.8240     1.5850 c6         1 00L       0.131200
     11 C7          -3.1520     0.9600     0.4630 c          1 00L       0.540000
     12 C8          -0.4610     2.0360    -0.5190 c          1 00L       0.594100
     13 C9          -5.5580     0.4510     0.9530 c3         1 00L      -0.018100
     14 C10         -5.6910    -0.9420     0.4030 ca         1 00L      -0.086300
     15 C15         -5.4390    -1.2180    -0.9410 ca         1 00L      -0.095500
     16 C14         -5.6180    -2.4950    -1.4540 ca         1 00L      -0.118000
     17 C13         -6.0550    -3.5250    -0.6290 ca         1 00L      -0.120000
     18 C12         -6.3070    -3.2660     0.7110 ca         1 00L      -0.118000
     19 C11         -6.1240    -1.9860     1.2200 ca         1 00L      -0.095500
     20 C            2.6410     1.5690    -2.2440 c3         1 00L       0.080300
     21 N            0.3420     1.5200    -1.4640 ns         1 00L      -0.494900
     22 O            2.2680     1.2270    -3.5460 oh         1 00L      -0.655000
     23 CA           1.6660     0.9870    -1.2040 c3         1 00L       0.088700
     24 CB           1.6310    -0.5470    -1.1940 c3         1 00L      -0.093400
     25 NE          -1.0220    -2.7050     0.3720 nu         1 00L      -0.904400
     26 CG           0.6720    -1.0750    -0.1350 c3         1 00L      -0.099400
     27 CZ          -1.6520    -3.9140     0.4150 c2         1 00L       0.791100
     28 C9X          4.0610     1.0800    -1.9650 c          1 00L       0.566100
     29 NH1         -1.0170    -5.0000     0.1650 n2         1 00L      -0.905100
     30 NH2         -2.9700    -3.8230     0.8330 nv         1 00L      -1.064200
     31 C1X          7.1840    -0.4180     1.0960 ca         1 00L      -0.084300
     32 C6X          7.7320     0.1790     2.2290 ca         1 00L      -0.104500
     33 C5X          9.0030    -0.1630     2.6710 ca         1 00L      -0.109500
     34 C4X          9.7480    -1.1100     1.9810 ca         1 00L      -0.108000
     35 C3X          9.2130    -1.7120     0.8490 ca         1 00L      -0.109500
     36 C2X          7.9420    -1.3660     0.4110 ca         1 00L      -0.104500
     37 C7X          5.8290    -0.0090     0.5930 c3         1 00L      -0.054100
     38 C8X          5.9400     1.1600    -0.3910 c3         1 00L       0.100000
     39 N1X          4.6510     1.5930    -0.8830 ns         1 00L      -0.491900
     40 H1          -2.1290     1.8540    -1.9010 h1         1 00L       0.077700
     41 H2          -1.0820     4.4630    -0.8720 hc         1 00L       0.067200
     42 H2A         -2.0390     4.1620    -2.3210 hc         1 00L       0.067200
     43 H3          -4.1050     4.2120    -1.1000 h1         1 00L       0.055700
     44 H3A         -3.1710     5.3630    -0.1200 h1         1 00L       0.055700
     45 HN3         -3.6700    -1.0870     2.0750 hn         1 00L       0.420500
     46 HN3A        -2.9410     0.0380     2.9830 hn         1 00L       0.420500
     47 H4          -4.5420     4.2550     1.9280 h1         1 00L       0.051200
     48 H4A         -5.2910     3.2270     0.7100 h1         1 00L       0.051200
     49 H5          -3.4650     2.2960     2.9860 hc         1 00L       0.071700
     50 H5A         -5.2130     2.1150     2.9760 hc         1 00L       0.071700
     51 H9          -6.3030     0.5870     1.7400 hc         1 00L       0.054700
     52 H9A         -5.8010     1.1690     0.1680 hc         1 00L       0.054700
     53 H15         -5.1170    -0.4200    -1.5990 ha         1 00L       0.118000
     54 H14         -5.4220    -2.6850    -2.5020 ha         1 00L       0.116000
     55 H13         -6.2010    -4.5200    -1.0290 ha         1 00L       0.114000
     56 H12         -6.6500    -4.0590     1.3630 ha         1 00L       0.116000
     57 H11         -6.3360    -1.7910     2.2650 ha         1 00L       0.118000
     58 HN          -0.0550     1.3170    -2.3690 hn         1 00L       0.324500
     59 HA           1.9650     1.3470    -0.2170 h1         1 00L       0.079700
     60 HB           1.3220    -0.9020    -2.1830 hc         1 00L       0.054200
     61 HBA          2.6360    -0.9420    -1.0220 hc         1 00L       0.054200
     62 HD           0.9630    -3.2270     0.0010 h1         1 00L       0.045200
     63 HDA          0.0820    -2.7050    -1.4240 h1         1 00L       0.045200
     64 HNE         -1.6250    -1.8930     0.3760 hn         1 00L       0.489000
     65 HG           1.1090    -0.9660     0.8610 hc         1 00L       0.056200
     66 HGA         -0.2230    -0.4570    -0.1470 hc         1 00L       0.056200
     67 HNH1        -1.6310    -5.8000     0.2570 hn         1 00L       0.370400
     68 HNH2        -3.4810    -3.0170     0.5000 hn         1 00L       0.448000
     69 HNHA        -3.5110    -4.6620     0.7000 hn         1 00L       0.448000
     70 H41          2.6140     2.6610    -2.1490 h1         1 00L       0.079700
     71 H42          2.8420     0.5000    -3.8260 ho         1 00L       0.477000
     72 H6X          7.1530     0.9150     2.7760 ha         1 00L       0.112500
     73 H5X          9.4100     0.3080     3.5570 ha         1 00L       0.113000
     74 H4X         10.7390    -1.3800     2.3240 ha         1 00L       0.113000
     75 H3X          9.7870    -2.4530     0.3070 ha         1 00L       0.113000
     76 H2X          7.5320    -1.8430    -0.4720 ha         1 00L       0.112500
     77 H7X          5.3390    -0.8490     0.0950 hc         1 00L       0.056700
     78 H7XA         5.1900     0.2880     1.4280 hc         1 00L       0.056700
     79 H8X          6.5680     0.8810    -1.2360 h1         1 00L       0.062200
     80 H8XA         6.4150     2.0120     0.0960 h1         1 00L       0.062200
     81 HN1X         4.1520     2.2770    -0.3370 hn         1 00L       0.320500
     82 O2          -0.1260     2.2380     0.6350 o          1 00L      -0.587100
     83 O1X          4.5770     0.2510    -2.7050 o          1 00L      -0.607100
     84 CD           0.2170    -2.5140    -0.3510 c3         1 00L       0.235800
@<TRIPOS>BOND
     1     1     4 1   
     2     1     5 1   
     3     1    12 1   
     4     1    40 1   
     5     2     5 1   
     6     2     6 1   
     7     2     8 1   
     8     3    11 2   
     9     4     6 1   
    10     4    41 1   
    11     4    42 1   
    12     5    11 1   
    13     6    43 1   
    14     6    44 1   
    15     7    10 1   
    16     7    45 1   
    17     7    46 1   
    18     8     9 1   
    19     8    47 1   
    20     8    48 1   
    21     9    10 1   
    22     9    49 1   
    23     9    50 1   
    24    10    11 1   
    25    10    13 1   
    26    12    21 1   
    27    12    82 2   
    28    13    14 1   
    29    13    51 1   
    30    13    52 1   
    31    14    15 ar  
    32    14    19 ar  
    33    15    16 ar  
    34    15    53 1   
    35    16    17 ar  
    36    16    54 1   
    37    17    18 ar  
    38    17    55 1   
    39    18    19 ar  
    40    18    56 1   
    41    19    57 1   
    42    20    22 1   
    43    20    23 1   
    44    20    28 1   
    45    20    70 1   
    46    21    23 1   
    47    21    58 1   
    48    22    71 1   
    49    23    24 1   
    50    23    59 1   
    51    24    26 1   
    52    24    60 1   
    53    24    61 1   
    54    25    27 1   
    55    25    64 1   
    56    25    84 1   
    57    26    65 1   
    58    26    66 1   
    59    26    84 1   
    60    27    29 2   
    61    27    30 1   
    62    28    39 1   
    63    28    83 2   
    64    29    67 1   
    65    30    68 1   
    66    30    69 1   
    67    31    32 ar  
    68    31    36 ar  
    69    31    37 1   
    70    32    33 ar  
    71    32    72 1   
    72    33    34 ar  
    73    33    73 1   
    74    34    35 ar  
    75    34    74 1   
    76    35    36 ar  
    77    35    75 1   
    78    36    76 1   
    79    37    38 1   
    80    37    77 1   
    81    37    78 1   
    82    38    39 1   
    83    38    79 1   
    84    38    80 1   
    85    39    81 1   
    86    62    84 1   
    87    63    84 1   
@<TRIPOS>SUBSTRUCTURE
     1 00L         1 TEMP              0 ****  ****    0 ROOT
