@<TRIPOS>MOLECULE
00L
   84    87     1     0     0
SMALL
No Charge or Current Charge


@<TRIPOS>ATOM
      1 C1          -1.8860     2.6090    -0.7200 c5         1 00L       0.032700
      2 N1          -3.6780     3.7650     0.4770 n3         1 00L      -0.421600
      3 O1          -2.8110     0.2550     0.5700 o          1 00L      -0.606000
      4 C2          -1.8680     4.1510    -0.9660 c5         1 00L      -0.078400
      5 N2          -3.0250     2.5260     0.2250 n          1 00L      -0.275200
      6 C3          -3.3630     4.5230    -0.7550 c5         1 00L       0.131800
      7 N3          -4.6490     0.4570     2.8770 n8         1 00L      -0.994200
      8 C4          -5.1120     3.6680     0.8130 c6         1 00L       0.134800
      9 C5          -5.2750     2.6890     1.9930 c6         1 00L      -0.076400
     10 C6          -4.8090     1.2510     1.6110 c6         1 00L       0.131200
     11 C7          -3.4590     1.2800     0.7660 c          1 00L       0.540000
     12 C8          -0.5100     2.1510    -0.1500 c          1 00L       0.594100
     13 C9          -5.9010     0.5620     0.7090 c3         1 00L      -0.018100
     14 C10         -5.7440    -0.9450     0.4760 ca         1 00L      -0.086300
     15 C15         -5.0990    -1.4250    -0.6820 ca         1 00L      -0.095500
     16 C14         -4.9770    -2.8070    -0.9090 ca         1 00L      -0.118000
     17 C13         -5.5090    -3.7220     0.0150 ca         1 00L      -0.120000
     18 C12         -6.1600    -3.2520     1.1670 ca         1 00L      -0.118000
     19 C11         -6.2810    -1.8700     1.3950 ca         1 00L      -0.095500
     20 C            2.6850     1.8030    -1.9110 c3         1 00L       0.080300
     21 N            0.3060     1.7680    -1.1970 ns         1 00L      -0.494900
     22 O            2.2940     1.8120    -3.3120 oh         1 00L      -0.655000
     23 CA           1.6000     1.0900    -1.0500 c3         1 00L       0.088700
     24 CB           1.4560    -0.4360    -1.3280 c3         1 00L      -0.093400
     25 NE          -0.9610    -3.1690    -0.0690 nu         1 00L      -0.904400
     26 CG           0.2910    -1.1120    -0.5600 c3         1 00L      -0.099400
     27 CZ          -1.2350    -4.4470     0.0940 c2         1 00L       0.791100
     28 C9X          4.0920     1.1670    -1.7070 c          1 00L       0.566100
     29 NH1         -0.4880    -5.3870    -0.2380 n2         1 00L      -0.905100
     30 NH2         -2.2800    -4.4890     0.8760 nv         1 00L      -1.064200
     31 C1X          7.4720    -0.6760     0.8900 ca         1 00L      -0.084300
     32 C6X          7.9580    -0.4080     2.1850 ca         1 00L      -0.104500
     33 C5X          9.2380    -0.8480     2.5670 ca         1 00L      -0.109500
     34 C4X         10.0390    -1.5560     1.6560 ca         1 00L      -0.108000
     35 C3X          9.5600    -1.8250     0.3620 ca         1 00L      -0.109500
     36 C2X          8.2800    -1.3850    -0.0190 ca         1 00L      -0.104500
     37 C7X          6.0890    -0.1960     0.4720 c3         1 00L      -0.054100
     38 C8X          6.1460     1.1670    -0.2470 c3         1 00L       0.100000
     39 N1X          4.8160     1.6470    -0.6340 ns         1 00L      -0.491900
     40 H1          -2.1150     2.0490    -1.6370 h1         1 00L       0.077700
     41 H2          -1.2390     4.6700    -0.2330 hc         1 00L       0.067200
     42 H2A         -1.5010     4.4180    -1.9630 hc         1 00L       0.067200
     43 H3          -3.9740     4.1830    -1.6020 h1         1 00L       0.055700
     44 H3A         -3.5160     5.6040    -0.6310 h1         1 00L       0.055700
     45 HN3         -4.4650    -0.5150     2.6010 hn         1 00L       0.420500
     46 HN3A        -3.7700     0.7330     3.3290 hn         1 00L       0.420500
     47 H4          -5.5000     4.6570     1.0980 h1         1 00L       0.051200
     48 H4A         -5.6960     3.3220    -0.0510 h1         1 00L       0.051200
     49 H5          -4.6810     3.0640     2.8380 hc         1 00L       0.071700
     50 H5A         -6.3180     2.6840     2.3340 hc         1 00L       0.071700
     51 H9          -6.8910     0.7320     1.1490 hc         1 00L       0.054700
     52 H9A         -5.9410     1.0660    -0.2650 hc         1 00L       0.054700
     53 H15         -4.6880    -0.7260    -1.4080 ha         1 00L       0.118000
     54 H14         -4.4750    -3.1670    -1.8050 ha         1 00L       0.116000
     55 H13         -5.4220    -4.7910    -0.1650 ha         1 00L       0.114000
     56 H12         -6.5770    -3.9590     1.8820 ha         1 00L       0.116000
     57 H11         -6.7960    -1.5170     2.2860 ha         1 00L       0.118000
     58 HN          -0.0530     1.8920    -2.1360 hn         1 00L       0.324500
     59 HA           1.9160     1.1910    -0.0020 h1         1 00L       0.079700
     60 HB           1.3050    -0.6000    -2.4020 hc         1 00L       0.054200
     61 HBA          2.3930    -0.9400    -1.0600 hc         1 00L       0.054200
     62 HD           1.1430    -3.0850    -0.2990 h1         1 00L       0.045200
     63 HDA          0.2110    -2.8910    -1.8030 h1         1 00L       0.045200
     64 HNE         -1.3830    -2.5950     0.6460 hn         1 00L       0.489000
     65 HG           0.3750    -0.8750     0.5080 hc         1 00L       0.056200
     66 HGA         -0.6590    -0.6940    -0.9130 hc         1 00L       0.056200
     67 HNH1        -0.8950    -6.2540     0.1250 hn         1 00L       0.370400
     68 HNH2        -3.0050    -3.8650     0.5530 hn         1 00L       0.448000
     69 HNHA        -2.6090    -5.4260     1.0590 hn         1 00L       0.448000
     70 H41          2.7580     2.8390    -1.5520 h1         1 00L       0.079700
     71 H42          2.8050     1.0890    -3.7470 ho         1 00L       0.477000
     72 H6X          7.3450     0.1420     2.8960 ha         1 00L       0.112500
     73 H5X          9.6080    -0.6380     3.5680 ha         1 00L       0.113000
     74 H4X         11.0290    -1.8960     1.9510 ha         1 00L       0.113000
     75 H3X         10.1800    -2.3720    -0.3440 ha         1 00L       0.113000
     76 H2X          7.9180    -1.5950    -1.0230 ha         1 00L       0.112500
     77 H7X          5.6210    -0.9360    -0.1880 hc         1 00L       0.056700
     78 H7XA         5.4350    -0.1100     1.3490 hc         1 00L       0.056700
     79 H8X          6.7740     1.0840    -1.1440 h1         1 00L       0.062200
     80 H8XA         6.6080     1.9090     0.4180 h1         1 00L       0.062200
     81 HN1X         4.3780     2.3610    -0.0620 hn         1 00L       0.320500
     82 O2          -0.1670     2.0930     1.0260 o          1 00L      -0.587100
     83 O1X          4.5500     0.3340    -2.4800 o          1 00L      -0.607100
     84 CD           0.2360    -2.6420    -0.7330 c3         1 00L       0.235800
@<TRIPOS>BOND
     1     1     4 1   
     2     1     5 1   
     3     1    12 1   
     4     1    40 1   
     5     2     5 1   
     6     2     6 1   
     7     2     8 1   
     8     3    11 2   
     9     4     6 1   
    10     4    41 1   
    11     4    42 1   
    12     5    11 1   
    13     6    43 1   
    14     6    44 1   
    15     7    10 1   
    16     7    45 1   
    17     7    46 1   
    18     8     9 1   
    19     8    47 1   
    20     8    48 1   
    21     9    10 1   
    22     9    49 1   
    23     9    50 1   
    24    10    11 1   
    25    10    13 1   
    26    12    21 1   
    27    12    82 2   
    28    13    14 1   
    29    13    51 1   
    30    13    52 1   
    31    14    15 ar  
    32    14    19 ar  
    33    15    16 ar  
    34    15    53 1   
    35    16    17 ar  
    36    16    54 1   
    37    17    18 ar  
    38    17    55 1   
    39    18    19 ar  
    40    18    56 1   
    41    19    57 1   
    42    20    22 1   
    43    20    23 1   
    44    20    28 1   
    45    20    70 1   
    46    21    23 1   
    47    21    58 1   
    48    22    71 1   
    49    23    24 1   
    50    23    59 1   
    51    24    26 1   
    52    24    60 1   
    53    24    61 1   
    54    25    27 1   
    55    25    64 1   
    56    25    84 1   
    57    26    65 1   
    58    26    66 1   
    59    26    84 1   
    60    27    29 2   
    61    27    30 1   
    62    28    39 1   
    63    28    83 2   
    64    29    67 1   
    65    30    68 1   
    66    30    69 1   
    67    31    32 ar  
    68    31    36 ar  
    69    31    37 1   
    70    32    33 ar  
    71    32    72 1   
    72    33    34 ar  
    73    33    73 1   
    74    34    35 ar  
    75    34    74 1   
    76    35    36 ar  
    77    35    75 1   
    78    36    76 1   
    79    37    38 1   
    80    37    77 1   
    81    37    78 1   
    82    38    39 1   
    83    38    79 1   
    84    38    80 1   
    85    39    81 1   
    86    62    84 1   
    87    63    84 1   
@<TRIPOS>SUBSTRUCTURE
     1 00L         1 TEMP              0 ****  ****    0 ROOT
