@<TRIPOS>MOLECULE
00M
   26    26     1     0     0
SMALL
bcc


@<TRIPOS>ATOM
      1 C60          0.6740    -0.0310    -0.1090 c3         1 00M       0.166500
      2 N            0.6600     0.5180     1.2360 n8         1 00M      -0.857800
      3 O60          2.3570     1.5510    -0.8420 oh         1 00M      -0.659800
      4 C61         -0.4300     0.5230    -1.0310 c3         1 00M      -0.083100
      5 C62         -1.8040     0.2100    -0.5140 ca         1 00M      -0.055300
      6 C63         -2.5230     1.1330     0.2420 ca         1 00M      -0.131500
      7 C64         -3.7710     0.8130     0.7650 ca         1 00M      -0.133000
      8 C65         -4.3210    -0.4410     0.5400 ca         1 00M      -0.149000
      9 C66         -3.6150    -1.3710    -0.2140 ca         1 00M      -0.133000
     10 C67         -2.3700    -1.0460    -0.7330 ca         1 00M      -0.131500
     11 C68          2.0560     0.1820    -0.7260 c3         1 00M      -0.000900
     12 C            3.1460    -0.5060     0.1250 c          1 00M       0.920600
     13 H60          0.5300    -1.1130    -0.0300 h1         1 00M       0.072700
     14 H            0.8170     1.5180     1.1880 hn         1 00M       0.322300
     15 H2          -0.2550     0.3980     1.6520 hn         1 00M       0.322300
     16 HO60         3.1490     1.6280    -0.2760 ho         1 00M       0.440000
     17 H61         -0.3030     1.6050    -1.1320 hc         1 00M       0.051200
     18 H61A        -0.3060     0.0940    -2.0290 hc         1 00M       0.051200
     19 H63         -2.1080     2.1190     0.4180 ha         1 00M       0.130500
     20 H64         -4.3120     1.5460     1.3500 ha         1 00M       0.118000
     21 H65         -5.2930    -0.6910     0.9450 ha         1 00M       0.115000
     22 H66         -4.0360    -2.3510    -0.3990 ha         1 00M       0.118000
     23 H67         -1.8300    -1.7780    -1.3220 ha         1 00M       0.130500
     24 H68          2.0540    -0.2860    -1.7220 h1         1 00M       0.026700
     25 OXT          3.0690    -1.7340     0.2840 o          1 00M      -0.825300
     26 O            4.0270     0.2660     0.5700 o          1 00M      -0.825300
@<TRIPOS>BOND
     1     1     2 1   
     2     1     4 1   
     3     1    11 1   
     4     1    13 1   
     5     2    14 1   
     6     2    15 1   
     7     3    11 1   
     8     3    16 1   
     9     4     5 1   
    10     4    17 1   
    11     4    18 1   
    12     5     6 ar  
    13     5    10 ar  
    14     6     7 ar  
    15     6    19 1   
    16     7     8 ar  
    17     7    20 1   
    18     8     9 ar  
    19     8    21 1   
    20     9    10 ar  
    21     9    22 1   
    22    10    23 1   
    23    11    12 1   
    24    11    24 1   
    25    12    25 1   
    26    12    26 1   
@<TRIPOS>SUBSTRUCTURE
     1 00M         1 TEMP              0 ****  ****    0 ROOT
