@<TRIPOS>MOLECULE
00N
   70    73     1     0     0
SMALL
abcg2


@<TRIPOS>ATOM
      1 C1          17.4750   -13.1830    21.1080 c5         1 00N       0.034700
      2 N1          18.7540   -15.1690    20.9610 n3         1 00N      -0.409600
      3 O1          15.8000   -14.4810    22.8310 o          1 00N      -0.600000
      4 C2          18.6990   -12.9790    20.2020 c5         1 00N      -0.079400
      5 N2          17.6430   -14.5400    21.5840 n          1 00N      -0.275200
      6 C3          19.6510   -14.0550    20.6940 c5         1 00N       0.122800
      7 N3          15.8640   -17.3700    22.6450 n8         1 00N      -0.997200
      8 C4          19.3150   -16.1860    21.8250 c6         1 00N       0.123800
      9 C5          18.2330   -17.1840    22.1850 c6         1 00N      -0.066400
     10 C6          17.0380   -16.5460    22.9010 c6         1 00N       0.130200
     11 C7          16.7840   -15.1060    22.4310 c          1 00N       0.537000
     12 C8          16.1670   -13.0230    20.3400 c          1 00N       0.613100
     13 C9          17.2210   -16.5280    24.4380 c3         1 00N      -0.026100
     14 C10         18.4380   -15.8050    24.9410 ca         1 00N      -0.081300
     15 C11         18.4680   -14.4140    25.0370 ca         1 00N      -0.108500
     16 C12         19.6210   -13.7530    25.4360 ca         1 00N      -0.113500
     17 C13         20.7640   -14.4730    25.7590 ca         1 00N      -0.112000
     18 C14         20.7390   -15.8590    25.6940 ca         1 00N      -0.113500
     19 C15         19.5840   -16.5160    25.2920 ca         1 00N      -0.108500
     20 C           14.6110   -10.4760    18.7600 c3         1 00N       0.121000
     21 N           15.5450   -11.8530    20.5510 ns         1 00N      -0.494900
     22 CA          14.3130   -11.4530    19.9160 c3         1 00N       0.120700
     23 CB          13.3640   -10.8470    20.9470 c3         1 00N      -0.082400
     24 CD          11.9820   -11.2220    23.0120 c3         1 00N       0.226800
     25 NE          11.6540   -12.1590    24.0610 nu         1 00N      -0.901400
     26 CG          12.9610   -11.8420    22.0280 c3         1 00N      -0.096400
     27 CZ          10.7400   -11.8260    25.0230 c2         1 00N       0.796100
     28 C1X         15.5540   -11.0940    17.7700 cc         1 00N       0.376700
     29 N1X         16.8450   -11.0460    17.8140 nd         1 00N      -0.647000
     30 S1X         14.9140   -12.0160    16.4560 ss         1 00N       0.028600
     31 C2X         17.3980   -11.7670    16.7930 cd         1 00N       0.265900
     32 C3X         16.5140   -12.3670    15.9560 cc         1 00N      -0.265000
     33 NH1         10.0170   -10.7730    24.8890 n2         1 00N      -0.902100
     34 NH2         10.6250   -12.7490    26.0420 nv         1 00N      -1.070200
     35 H1          17.5080   -12.5020    21.9620 h1         1 00N       0.062700
     36 H2          18.4440   -13.1530    19.1570 hc         1 00N       0.073700
     37 H2A         19.1070   -11.9760    20.2930 hc         1 00N       0.073700
     38 H3          20.3900   -14.3460    19.9490 h1         1 00N       0.056200
     39 H3A         20.1770   -13.7280    21.6020 h1         1 00N       0.056200
     40 HN3         15.0460   -16.9410    23.0620 hn         1 00N       0.415000
     41 HN3A        15.6810   -17.4160    21.6490 hn         1 00N       0.415000
     42 H4          20.1090   -16.6830    21.2670 h1         1 00N       0.056200
     43 H4A         19.7700   -15.7420    22.7200 h1         1 00N       0.056200
     44 H5          17.8850   -17.6540    21.2610 hc         1 00N       0.064700
     45 H5A         18.6480   -17.9830    22.8020 hc         1 00N       0.064700
     46 H9          16.3200   -16.0960    24.8820 hc         1 00N       0.066700
     47 H9A         17.2590   -17.5730    24.7520 hc         1 00N       0.066700
     48 H11         17.5820   -13.8380    24.7970 ha         1 00N       0.117500
     49 H12         19.6250   -12.6720    25.4980 ha         1 00N       0.112000
     50 H13         21.6640   -13.9570    26.0680 ha         1 00N       0.113000
     51 H14         21.6200   -16.4320    25.9560 ha         1 00N       0.112000
     52 H15         19.5750   -17.5990    25.2390 ha         1 00N       0.117500
     53 HN          15.9490   -11.2080    21.2130 hn         1 00N       0.312500
     54 HA          13.8530   -12.3500    19.4920 h1         1 00N       0.097700
     55 HB          13.8370    -9.9700    21.4040 hc         1 00N       0.052700
     56 HBA         12.4710   -10.4870    20.4350 hc         1 00N       0.052700
     57 HD          11.0660   -10.9380    22.4900 h1         1 00N       0.047200
     58 HDA         12.4060   -10.2940    23.4180 h1         1 00N       0.047200
     59 HNE         12.4090   -12.7640    24.3440 hn         1 00N       0.470000
     60 HG          12.5070   -12.7230    21.5650 hc         1 00N       0.057200
     61 HGA         13.8470   -12.1920    22.5650 hc         1 00N       0.057200
     62 H2X         18.4730   -11.8190    16.6940 h4         1 00N       0.037100
     63 H3X         16.7210   -12.9680    15.0840 h4         1 00N       0.161000
     64 HNH1         9.3480   -10.7020    25.6470 hn         1 00N       0.376400
     65 HNH2        10.2120   -12.3990    26.8910 hn         1 00N       0.452000
     66 HNHA        11.4190   -13.3420    26.2260 hn         1 00N       0.452000
     67 H33         15.1010    -9.5870    19.1800 h1         1 00N       0.056700
     68 H34         13.5120    -9.4190    17.5560 ho         1 00N       0.455000
     69 O2          15.7700   -13.8860    19.5770 o          1 00N      -0.584100
     70 O           13.3890   -10.1740    18.1410 oh         1 00N      -0.649000
@<TRIPOS>BOND
     1     1     4 1   
     2     1     5 1   
     3     1    12 1   
     4     1    35 1   
     5     2     5 1   
     6     2     6 1   
     7     2     8 1   
     8     3    11 2   
     9     4     6 1   
    10     4    36 1   
    11     4    37 1   
    12     5    11 1   
    13     6    38 1   
    14     6    39 1   
    15     7    10 1   
    16     7    40 1   
    17     7    41 1   
    18     8     9 1   
    19     8    42 1   
    20     8    43 1   
    21     9    10 1   
    22     9    44 1   
    23     9    45 1   
    24    10    11 1   
    25    10    13 1   
    26    12    21 1   
    27    12    69 2   
    28    13    14 1   
    29    13    46 1   
    30    13    47 1   
    31    14    15 ar  
    32    14    19 ar  
    33    15    16 ar  
    34    15    48 1   
    35    16    17 ar  
    36    16    49 1   
    37    17    18 ar  
    38    17    50 1   
    39    18    19 ar  
    40    18    51 1   
    41    19    52 1   
    42    20    22 1   
    43    20    28 1   
    44    20    67 1   
    45    20    70 1   
    46    21    22 1   
    47    21    53 1   
    48    22    23 1   
    49    22    54 1   
    50    23    26 1   
    51    23    55 1   
    52    23    56 1   
    53    24    25 1   
    54    24    26 1   
    55    24    57 1   
    56    24    58 1   
    57    25    27 1   
    58    25    59 1   
    59    26    60 1   
    60    26    61 1   
    61    27    33 2   
    62    27    34 1   
    63    28    29 2   
    64    28    30 1   
    65    29    31 1   
    66    30    32 1   
    67    31    32 2   
    68    31    62 1   
    69    32    63 1   
    70    33    64 1   
    71    34    65 1   
    72    34    66 1   
    73    68    70 1   
@<TRIPOS>SUBSTRUCTURE
     1 00N         1 TEMP              0 ****  ****    0 ROOT
