@<TRIPOS>MOLECULE
00N
   70    73     1     0     0
SMALL
No Charge or Current Charge


@<TRIPOS>ATOM
      1 C1          17.1270   -13.3700    21.2000 c5         1 00N       0.034700
      2 N1          18.6510   -15.2710    20.9870 n3         1 00N      -0.409600
      3 O1          15.7290   -14.9470    23.0910 o          1 00N      -0.600000
      4 C2          18.2580   -13.1120    20.1530 c5         1 00N      -0.079400
      5 N2          17.4780   -14.7520    21.6010 n          1 00N      -0.275200
      6 C3          19.3950   -14.0280    20.6830 c5         1 00N       0.122800
      7 N3          16.1150   -17.8990    22.8660 n8         1 00N      -0.997200
      8 C4          19.3980   -16.2500    21.7990 c6         1 00N       0.123800
      9 C5          18.4500   -17.3970    22.2070 c6         1 00N      -0.066400
     10 C6          17.2250   -16.8970    23.0390 c6         1 00N       0.130200
     11 C7          16.7320   -15.4520    22.5910 c          1 00N       0.537000
     12 C8          15.7440   -13.2070    20.4990 c          1 00N       0.613100
     13 C9          17.5420   -16.8420    24.5780 c3         1 00N      -0.026100
     14 C10         18.7420   -15.9870    24.9830 ca         1 00N      -0.081300
     15 C11         18.6220   -14.5860    25.0860 ca         1 00N      -0.108500
     16 C12         19.7340   -13.8010    25.4370 ca         1 00N      -0.113500
     17 C13         20.9720   -14.4120    25.6970 ca         1 00N      -0.112000
     18 C14         21.0960   -15.8080    25.6100 ca         1 00N      -0.113500
     19 C15         19.9850   -16.5930    25.2580 ca         1 00N      -0.108500
     20 C           14.6330   -10.3590    18.6680 c3         1 00N       0.121000
     21 N           15.4020   -11.8690    20.4920 ns         1 00N      -0.494900
     22 CA          14.2130   -11.3110    19.8290 c3         1 00N       0.120700
     23 CB          13.2860   -10.6350    20.8740 c3         1 00N      -0.082400
     24 CD          11.8330   -10.8940    22.9830 c3         1 00N       0.226800
     25 NE          11.4200   -11.8280    24.0370 nu         1 00N      -0.901400
     26 CG          12.8090   -11.5790    22.0050 c3         1 00N      -0.096400
     27 CZ          10.5910   -11.5170    25.0190 c2         1 00N       0.796100
     28 C1X         15.6690   -10.9930    17.7480 cc         1 00N       0.376700
     29 N1X         16.8920   -10.4960    17.5810 nd         1 00N      -0.647000
     30 S1X         15.3040   -12.4490    16.8530 ss         1 00N       0.028600
     31 C2X         17.6120   -11.2990    16.7090 cd         1 00N       0.265900
     32 C3X         16.9260   -12.3890    16.2280 cc         1 00N      -0.265000
     33 NH1         10.0130   -10.4220    25.1520 n2         1 00N      -0.902100
     34 NH2         10.4020   -12.6160    25.6980 nv         1 00N      -1.070200
     35 H1          17.1960   -12.6910    22.0600 h1         1 00N       0.062700
     36 H2          17.9580   -13.4250    19.1450 hc         1 00N       0.073700
     37 H2A         18.5530   -12.0590    20.0940 hc         1 00N       0.073700
     38 H3          20.1890   -14.1870    19.9410 h1         1 00N       0.056200
     39 H3A         19.8490   -13.6010    21.5880 h1         1 00N       0.056200
     40 HN3         15.2700   -17.5140    23.3060 hn         1 00N       0.415000
     41 HN3A        15.8550   -17.9340    21.8730 hn         1 00N       0.415000
     42 H4          20.2370   -16.6600    21.2170 h1         1 00N       0.056200
     43 H4A         19.8280   -15.7670    22.6850 h1         1 00N       0.056200
     44 H5          18.1050   -17.8880    21.2870 hc         1 00N       0.064700
     45 H5A         19.0070   -18.1620    22.7640 hc         1 00N       0.064700
     46 H9          16.6590   -16.4890    25.1240 hc         1 00N       0.066700
     47 H9A         17.7010   -17.8640    24.9450 hc         1 00N       0.066700
     48 H11         17.6680   -14.1000    24.8930 ha         1 00N       0.117500
     49 H12         19.6350   -12.7200    25.5100 ha         1 00N       0.112000
     50 H13         21.8320   -13.8040    25.9690 ha         1 00N       0.113000
     51 H14         22.0540   -16.2820    25.8150 ha         1 00N       0.112000
     52 H15         20.0950   -17.6730    25.1890 ha         1 00N       0.117500
     53 HN          16.0480   -11.2280    20.9390 hn         1 00N       0.312500
     54 HA          13.6450   -12.1370    19.3780 h1         1 00N       0.097700
     55 HB          13.8080    -9.7770    21.3170 hc         1 00N       0.052700
     56 HBA         12.4030   -10.2340    20.3620 hc         1 00N       0.052700
     57 HD          10.9530   -10.5400    22.4260 h1         1 00N       0.047200
     58 HDA         12.3260   -10.0180    23.4290 h1         1 00N       0.047200
     59 HNE         11.3350   -12.7990    23.7730 hn         1 00N       0.470000
     60 HG          12.3190   -12.4540    21.5600 hc         1 00N       0.057200
     61 HGA         13.6750   -11.9460    22.5700 hc         1 00N       0.057200
     62 H2X         18.6350   -11.0400    16.4630 h4         1 00N       0.037100
     63 H3X         17.2700   -13.1540    15.5450 h4         1 00N       0.161000
     64 HNH1         9.3720   -10.5010    25.9480 hn         1 00N       0.376400
     65 HNH2         9.8880   -12.4640    26.5550 hn         1 00N       0.452000
     66 HNHA        11.2670   -13.1190    25.8340 hn         1 00N       0.452000
     67 H33         15.1120    -9.4870    19.1330 h1         1 00N       0.056700
     68 H34         13.7480    -9.1910    17.3370 ho         1 00N       0.455000
     69 O2          15.0430   -14.0820    20.0070 o          1 00N      -0.584100
     70 O           13.4640    -9.9160    17.9380 oh         1 00N      -0.649000
@<TRIPOS>BOND
     1     1     4 1   
     2     1     5 1   
     3     1    12 1   
     4     1    35 1   
     5     2     5 1   
     6     2     6 1   
     7     2     8 1   
     8     3    11 2   
     9     4     6 1   
    10     4    36 1   
    11     4    37 1   
    12     5    11 1   
    13     6    38 1   
    14     6    39 1   
    15     7    10 1   
    16     7    40 1   
    17     7    41 1   
    18     8     9 1   
    19     8    42 1   
    20     8    43 1   
    21     9    10 1   
    22     9    44 1   
    23     9    45 1   
    24    10    11 1   
    25    10    13 1   
    26    12    21 1   
    27    12    69 2   
    28    13    14 1   
    29    13    46 1   
    30    13    47 1   
    31    14    15 ar  
    32    14    19 ar  
    33    15    16 ar  
    34    15    48 1   
    35    16    17 ar  
    36    16    49 1   
    37    17    18 ar  
    38    17    50 1   
    39    18    19 ar  
    40    18    51 1   
    41    19    52 1   
    42    20    22 1   
    43    20    28 1   
    44    20    67 1   
    45    20    70 1   
    46    21    22 1   
    47    21    53 1   
    48    22    23 1   
    49    22    54 1   
    50    23    26 1   
    51    23    55 1   
    52    23    56 1   
    53    24    25 1   
    54    24    26 1   
    55    24    57 1   
    56    24    58 1   
    57    25    27 1   
    58    25    59 1   
    59    26    60 1   
    60    26    61 1   
    61    27    33 2   
    62    27    34 1   
    63    28    29 2   
    64    28    30 1   
    65    29    31 1   
    66    30    32 1   
    67    31    32 2   
    68    31    62 1   
    69    32    63 1   
    70    33    64 1   
    71    34    65 1   
    72    34    66 1   
    73    68    70 1   
@<TRIPOS>SUBSTRUCTURE
     1 00N         1 TEMP              0 ****  ****    0 ROOT
