@<TRIPOS>MOLECULE
00P
   62    65     1     0     0
SMALL
No Charge or Current Charge


@<TRIPOS>ATOM
      1 C1          -4.9870    -1.9440     1.0250 c3         1 00P       0.105000
      2 N1          -3.9300    -1.1650     1.6790 ns         1 00P      -0.498900
      3 C2          -6.2530    -1.1000     0.6920 c6         1 00P      -0.080700
      4 N2          -9.5560     0.7640    -1.4680 n8         1 00P      -0.997200
      5 C3          -7.3750    -2.0010     0.1050 c6         1 00P      -0.069900
      6 C4          -8.6530    -1.1860    -0.2190 c6         1 00P      -0.074900
      7 C5          -8.3380    -0.0150    -1.1840 c6         1 00P       0.163500
      8 C6          -7.2300     0.8960    -0.6000 c6         1 00P      -0.074900
      9 C7          -5.9510     0.0860    -0.2710 c6         1 00P      -0.069900
     10 N07          1.0650     0.3860    -0.1580 n          1 00P      -0.373400
     11 C08          0.5880     1.6690    -0.3360 c          1 00P       0.612000
     12 O09          1.0350     2.5210    -1.0880 o          1 00P      -0.528000
     13 N10         -0.4900     1.8110     0.5430 n          1 00P      -0.266400
     14 N11         -0.6100     0.5890     1.3010 n          1 00P      -0.228400
     15 C12          0.3370    -0.3090     0.7870 c          1 00P       0.600000
     16 O13          0.4680    -1.4850     1.0950 o          1 00P      -0.526000
     17 C14         -1.1200     3.0540     1.0150 c6         1 00P       0.148200
     18 C15         -2.2640     2.7670     1.9870 c2         1 00P      -0.199200
     19 C16         -2.6120     1.5290     2.3970 c2         1 00P      -0.221200
     20 C17         -1.9060     0.2460     1.9310 c6         1 00P       0.056900
     21 C18         -2.8290    -0.6300     1.0380 c          1 00P       0.581100
     22 O19         -2.6220    -0.8190    -0.1550 o          1 00P      -0.579100
     23 C32          3.5100    -0.0240    -0.3240 c3         1 00P      -0.334400
     24 S33          4.8160    -0.7530    -1.3200 sy         1 00P       1.057500
     25 O34          4.5830    -2.2020    -1.3230 o          1 00P      -0.518000
     26 O35          4.8680     0.0130    -2.5710 o          1 00P      -0.518000
     27 C36          6.3020    -0.4020    -0.3590 ca         1 00P      -0.270500
     28 C37          6.7450    -1.3180     0.6200 ca         1 00P      -0.015000
     29 C38          7.8980    -1.0360     1.3740 ca         1 00P      -0.128500
     30 C39          8.6110     0.1560     1.1580 ca         1 00P      -0.055000
     31 C40          8.1690     1.0700     0.1870 ca         1 00P      -0.128500
     32 C41          7.0170     0.7960    -0.5710 ca         1 00P      -0.015000
     33 H1          -4.5990    -2.3960     0.1030 h1         1 00P       0.056700
     34 H1A         -5.2740    -2.7620     1.6990 h1         1 00P       0.056700
     35 HN1         -4.0290    -0.9600     2.6670 hn         1 00P       0.314500
     36 H2          -6.6070    -0.6880     1.6480 hc         1 00P       0.051700
     37 HN2         -9.3350     1.4700    -2.1800 hn         1 00P       0.393500
     38 HN2A       -10.2330     0.1540    -1.9400 hn         1 00P       0.393500
     39 H3          -7.0160    -2.4970    -0.8070 hc         1 00P       0.042200
     40 H3A         -7.6240    -2.8010     0.8160 hc         1 00P       0.042200
     41 H4          -9.4070    -1.8500    -0.6640 hc         1 00P       0.048200
     42 H4A         -9.0870    -0.7990     0.7140 hc         1 00P       0.048200
     43 H5          -7.9900    -0.4290    -2.1420 h1         1 00P       0.014700
     44 H6          -6.9840     1.6950    -1.3130 hc         1 00P       0.048200
     45 H6A         -7.5930     1.3910     0.3120 hc         1 00P       0.048200
     46 H7          -5.2080     0.7620     0.1750 hc         1 00P       0.042200
     47 H7A         -5.5070    -0.2930    -1.2020 hc         1 00P       0.042200
     48 H14         -0.3600     3.6770     1.5080 h1         1 00P       0.072700
     49 H14A        -1.4990     3.6150     0.1490 h1         1 00P       0.072700
     50 H15         -2.8020     3.6440     2.3520 ha         1 00P       0.191000
     51 H16         -3.4380     1.3970     3.0990 ha         1 00P       0.188000
     52 H17         -1.6900    -0.3710     2.8140 h1         1 00P       0.099700
     53 H31          1.9220    -1.2840    -1.1090 h1         1 00P       0.088700
     54 H31A         2.1200     0.2500    -1.9730 h1         1 00P       0.088700
     55 H32          3.7430     1.0410    -0.2150 h1         1 00P       0.106700
     56 H32A         3.5430    -0.5080     0.6570 h1         1 00P       0.106700
     57 H37          6.2030    -2.2450     0.8010 ha         1 00P       0.139500
     58 H38          8.2390    -1.7430     2.1270 ha         1 00P       0.121500
     59 H39          9.5020     0.3710     1.7440 ha         1 00P       0.118000
     60 H40          8.7190     1.9940     0.0220 ha         1 00P       0.121500
     61 H41          6.6860     1.5170    -1.3180 ha         1 00P       0.139500
     62 C31          2.1300    -0.2120    -0.9750 c3         1 00P       0.152000
@<TRIPOS>BOND
     1     1     2 1   
     2     1     3 1   
     3     1    33 1   
     4     1    34 1   
     5     2    21 1   
     6     2    35 1   
     7     3     5 1   
     8     3     9 1   
     9     3    36 1   
    10     4     7 1   
    11     4    37 1   
    12     4    38 1   
    13     5     6 1   
    14     5    39 1   
    15     5    40 1   
    16     6     7 1   
    17     6    41 1   
    18     6    42 1   
    19     7     8 1   
    20     7    43 1   
    21     8     9 1   
    22     8    44 1   
    23     8    45 1   
    24     9    46 1   
    25     9    47 1   
    26    10    11 1   
    27    10    15 1   
    28    10    62 1   
    29    11    12 2   
    30    11    13 1   
    31    13    14 1   
    32    13    17 1   
    33    14    15 1   
    34    14    20 1   
    35    15    16 2   
    36    17    18 1   
    37    17    48 1   
    38    17    49 1   
    39    18    19 2   
    40    18    50 1   
    41    19    20 1   
    42    19    51 1   
    43    20    21 1   
    44    20    52 1   
    45    21    22 2   
    46    23    24 1   
    47    23    55 1   
    48    23    56 1   
    49    23    62 1   
    50    24    25 2   
    51    24    26 2   
    52    24    27 1   
    53    27    28 ar  
    54    27    32 ar  
    55    28    29 ar  
    56    28    57 1   
    57    29    30 ar  
    58    29    58 1   
    59    30    31 ar  
    60    30    59 1   
    61    31    32 ar  
    62    31    60 1   
    63    32    61 1   
    64    53    62 1   
    65    54    62 1   
@<TRIPOS>SUBSTRUCTURE
     1 00P         1 TEMP              0 ****  ****    0 ROOT
