@<TRIPOS>MOLECULE
00P
   62    65     1     0     0
SMALL
abcg2


@<TRIPOS>ATOM
      1 C1          -4.5900    -0.8010    -0.5020 c3         1 00P       0.105000
      2 N1          -3.6830     0.0570     0.2380 ns         1 00P      -0.498900
      3 C2          -5.8930    -1.0010     0.2600 c6         1 00P      -0.080700
      4 N2         -10.0720    -1.1760     1.2210 n8         1 00P      -0.997200
      5 C3          -6.7760    -2.0100    -0.4730 c6         1 00P      -0.069900
      6 C4          -8.0950    -2.2390     0.2560 c6         1 00P      -0.074900
      7 C5          -8.8550    -0.9330     0.4590 c6         1 00P       0.163500
      8 C6          -7.9760     0.0680     1.1990 c6         1 00P      -0.074900
      9 C7          -6.6590     0.3060     0.4710 c6         1 00P      -0.069900
     10 N07          1.3020     0.7370    -0.8580 n          1 00P      -0.373400
     11 C08          1.0330     1.9850    -1.3940 c          1 00P       0.612000
     12 O09          1.6710     2.5660    -2.2430 o          1 00P      -0.528000
     13 N10         -0.0840     2.4130    -0.7530 n          1 00P      -0.266400
     14 N11         -0.3710     1.5390     0.2930 n          1 00P      -0.228400
     15 C12          0.4070     0.4250     0.1380 c          1 00P       0.600000
     16 O13          0.3280    -0.6120     0.7550 o          1 00P      -0.526000
     17 C14         -0.4490     3.7950    -0.5640 c6         1 00P       0.148200
     18 C15         -1.7750     3.8610     0.1170 c2         1 00P      -0.199200
     19 C16         -2.3700     2.8080     0.6600 c2         1 00P      -0.221200
     20 C17         -1.7530     1.4400     0.6820 c6         1 00P       0.056900
     21 C18         -2.5230     0.4920    -0.2550 c          1 00P       0.581100
     22 O19         -2.0900     0.2160    -1.3590 o          1 00P      -0.579100
     23 C32          3.5230    -0.0820    -0.2740 c3         1 00P      -0.334400
     24 S33          4.8430    -1.1770    -0.7990 sy         1 00P       1.057500
     25 O34          4.3160    -2.5390    -0.7930 o          1 00P      -0.518000
     26 O35          5.4010    -0.6370    -2.0360 o          1 00P      -0.518000
     27 C36          6.0420    -1.0200     0.4920 ca         1 00P      -0.270500
     28 C37          5.9490    -1.8510     1.6010 ca         1 00P      -0.015000
     29 C38          6.8750    -1.7100     2.6210 ca         1 00P      -0.128500
     30 C39          7.8780    -0.7540     2.5240 ca         1 00P      -0.055000
     31 C40          7.9620     0.0660     1.4070 ca         1 00P      -0.128500
     32 C41          7.0400    -0.0620     0.3790 ca         1 00P      -0.015000
     33 H1          -4.7930    -0.3510    -1.4780 h1         1 00P       0.056700
     34 H1A         -4.1170    -1.7700    -0.6880 h1         1 00P       0.056700
     35 HN1         -3.8940     0.2370     1.2070 hn         1 00P       0.314500
     36 H2          -5.6490    -1.4240     1.2430 hc         1 00P       0.051700
     37 HN2        -10.5950    -0.3120     1.3000 hn         1 00P       0.393500
     38 HN2A       -10.6740    -1.8070     0.7040 hn         1 00P       0.393500
     39 H3          -6.9760    -1.6450    -1.4870 hc         1 00P       0.042200
     40 H3A         -6.2430    -2.9580    -0.5870 hc         1 00P       0.042200
     41 H4          -8.7100    -2.9470    -0.3080 hc         1 00P       0.048200
     42 H4A         -7.9050    -2.6930     1.2340 hc         1 00P       0.048200
     43 H5          -9.0650    -0.5140    -0.5390 h1         1 00P       0.014700
     44 H6          -8.5100     1.0150     1.3210 hc         1 00P       0.048200
     45 H6A         -7.7780    -0.3150     2.2070 hc         1 00P       0.048200
     46 H7          -6.0590     1.0260     1.0360 hc         1 00P       0.042200
     47 H7A         -6.8530     0.7680    -0.5040 hc         1 00P       0.042200
     48 H14          0.3050     4.3380     0.0180 h1         1 00P       0.072700
     49 H14A        -0.5090     4.2690    -1.5440 h1         1 00P       0.072700
     50 H15         -2.2440     4.8350     0.1610 ha         1 00P       0.191000
     51 H16         -3.3360     2.9090     1.1360 ha         1 00P       0.188000
     52 H17         -1.7810     1.0590     1.7060 h1         1 00P       0.099700
     53 H31          1.9860    -1.1440    -1.3660 h1         1 00P       0.088700
     54 H31A         2.7030     0.1980    -2.2600 h1         1 00P       0.088700
     55 H32          3.9410     0.9220    -0.1920 h1         1 00P       0.106700
     56 H32A         3.2000    -0.4070     0.7160 h1         1 00P       0.106700
     57 H37          5.1740    -2.6020     1.6740 ha         1 00P       0.139500
     58 H38          6.8150    -2.3490     3.4910 ha         1 00P       0.121500
     59 H39          8.5980    -0.6470     3.3230 ha         1 00P       0.118000
     60 H40          8.7470     0.8040     1.3320 ha         1 00P       0.121500
     61 H41          7.1070     0.5730    -0.4930 ha         1 00P       0.139500
     62 C31          2.3720    -0.1290    -1.2760 c3         1 00P       0.152000
@<TRIPOS>BOND
     1     1     2 1   
     2     1     3 1   
     3     1    33 1   
     4     1    34 1   
     5     2    21 1   
     6     2    35 1   
     7     3     5 1   
     8     3     9 1   
     9     3    36 1   
    10     4     7 1   
    11     4    37 1   
    12     4    38 1   
    13     5     6 1   
    14     5    39 1   
    15     5    40 1   
    16     6     7 1   
    17     6    41 1   
    18     6    42 1   
    19     7     8 1   
    20     7    43 1   
    21     8     9 1   
    22     8    44 1   
    23     8    45 1   
    24     9    46 1   
    25     9    47 1   
    26    10    11 1   
    27    10    15 1   
    28    10    62 1   
    29    11    12 2   
    30    11    13 1   
    31    13    14 1   
    32    13    17 1   
    33    14    15 1   
    34    14    20 1   
    35    15    16 2   
    36    17    18 1   
    37    17    48 1   
    38    17    49 1   
    39    18    19 2   
    40    18    50 1   
    41    19    20 1   
    42    19    51 1   
    43    20    21 1   
    44    20    52 1   
    45    21    22 2   
    46    23    24 1   
    47    23    55 1   
    48    23    56 1   
    49    23    62 1   
    50    24    25 2   
    51    24    26 2   
    52    24    27 1   
    53    27    28 ar  
    54    27    32 ar  
    55    28    29 ar  
    56    28    57 1   
    57    29    30 ar  
    58    29    58 1   
    59    30    31 ar  
    60    30    59 1   
    61    31    32 ar  
    62    31    60 1   
    63    32    61 1   
    64    53    62 1   
    65    54    62 1   
@<TRIPOS>SUBSTRUCTURE
     1 00P         1 TEMP              0 ****  ****    0 ROOT
