@<TRIPOS>MOLECULE
00Q
   73    76     1     0     0
SMALL
bcc


@<TRIPOS>ATOM
      1 N           15.8540   -16.8900    23.3150 n8         1 00Q      -0.866800
      2 CA          17.1300   -16.2010    23.2640 c3         1 00Q       0.094500
      3 C           16.8940   -14.8470    22.6060 c          1 00Q       0.691100
      4 O           15.9750   -14.1360    23.0010 o          1 00Q      -0.629100
      5 CB          17.7800   -15.9790    24.6480 c3         1 00Q      -0.069100
      6 CG          19.1300   -15.3230    24.5730 ca         1 00Q      -0.083300
      7 CD1         20.2850   -16.0930    24.4470 ca         1 00Q      -0.124500
      8 CD2         19.2520   -13.9350    24.5620 ca         1 00Q      -0.124500
      9 CE1         21.5290   -15.4930    24.3040 ca         1 00Q      -0.129000
     10 CE2         20.4940   -13.3310    24.4210 ca         1 00Q      -0.129000
     11 CZ          21.6370   -14.1090    24.2870 ca         1 00Q      -0.129000
     12 NX          17.7140   -14.4430    21.6270 n          1 00Q      -0.454800
     13 CAX         17.5250   -13.1300    21.0350 c5         1 00Q       0.033700
     14 CX          16.1580   -13.0110    20.3700 c          1 00Q       0.679100
     15 OX          15.6850   -13.9330    19.7280 o          1 00Q      -0.585100
     16 CBX         18.6490   -13.0340    19.9930 c5         1 00Q      -0.085400
     17 CGX         19.7140   -13.9800    20.5290 c5         1 00Q      -0.096400
     18 CDX         18.8930   -15.1250    21.1010 c5         1 00Q       0.107000
     19 CY          14.6280   -10.4070    18.7430 c3         1 00Q       0.109800
     20 NY          15.5740   -11.8080    20.5030 ns         1 00Q      -0.563900
     21 OY          13.4080   -10.0930    18.1300 oh         1 00Q      -0.582800
     22 CAY         14.3370   -11.4240    19.8690 c3         1 00Q       0.119700
     23 CBY         13.3460   -10.8770    20.8930 c3         1 00Q      -0.079400
     24 CDY         11.8520   -11.3860    22.8460 c3         1 00Q       0.222800
     25 NEY         11.4580   -12.3890    23.8080 nu         1 00Q      -0.842200
     26 CGY         12.9170   -11.9290    21.9080 c3         1 00Q      -0.096400
     27 NH1          9.7350   -11.0750    24.5860 n2         1 00Q      -0.897100
     28 NH2         10.3540   -13.0710    25.7090 nv         1 00Q      -0.959800
     29 CZY         10.4570   -12.1280    24.7060 c2         1 00Q       0.788100
     30 S1          14.8670   -11.8790    16.3950 ss         1 00Q      -0.047100
     31 N11         16.8480   -10.9680    17.7800 nc         1 00Q      -0.539100
     32 C17         15.5670   -11.0040    17.7360 cd         1 00Q       0.348200
     33 C21         17.4000   -11.6710    16.7330 ca         1 00Q       0.089400
     34 C31         18.7650   -11.8350    16.4970 ca         1 00Q      -0.080000
     35 C41         19.1680   -12.5750    15.4020 ca         1 00Q      -0.132000
     36 C51         18.2290   -13.1490    14.5370 ca         1 00Q      -0.118000
     37 C61         16.8720   -12.9950    14.7530 ca         1 00Q      -0.087000
     38 C71         16.4680   -12.2550    15.8590 ca         1 00Q      -0.059100
     39 HN          15.9850   -17.7980    23.7440 hn         1 00Q       0.348300
     40 HNA         15.2170   -16.3810    23.9160 hn         1 00Q       0.348300
     41 HA          17.8040   -16.8130    22.6620 h1         1 00Q       0.071700
     42 HB          17.0970   -15.3810    25.2570 hc         1 00Q       0.056200
     43 HBA         17.8660   -16.9570    25.1280 hc         1 00Q       0.056200
     44 HD1         20.2070   -17.1740    24.4560 ha         1 00Q       0.134000
     45 HD2         18.3660   -13.3200    24.6660 ha         1 00Q       0.134000
     46 HE1         22.4150   -16.1080    24.2070 ha         1 00Q       0.131500
     47 HE2         20.5700   -12.2510    24.4150 ha         1 00Q       0.131500
     48 HZ          22.6060   -13.6390    24.1750 ha         1 00Q       0.131000
     49 HAX         17.6520   -12.3570    21.8010 h1         1 00Q       0.060700
     50 HBX         18.2980   -13.3860    19.0220 hc         1 00Q       0.067700
     51 HBXA        18.9950   -12.0090    19.8690 hc         1 00Q       0.067700
     52 HGX         20.4080   -14.3150    19.7590 hc         1 00Q       0.055700
     53 H17         20.2930   -13.5050    21.3240 hc         1 00Q       0.055700
     54 HDX         19.4300   -15.6610    21.8810 h1         1 00Q       0.055700
     55 H12         18.6130   -15.8390    20.3210 h1         1 00Q       0.055700
     56 HNH1         8.9930   -11.0690    25.2750 hn         1 00Q       0.373400
     57 HY          15.1160    -9.5280    19.1850 h1         1 00Q       0.058700
     58 HNY         16.0290   -11.1140    21.0770 hn         1 00Q       0.312500
     59 HOY         13.5220    -9.3090    17.5820 ho         1 00Q       0.416000
     60 HAY         13.9140   -12.3210    19.4100 h1         1 00Q       0.100700
     61 HBY         13.7890   -10.0170    21.4080 hc         1 00Q       0.051700
     62 HBYA        12.4650   -10.5060    20.3680 hc         1 00Q       0.051700
     63 HDY         10.9750   -11.0870    22.2700 h1         1 00Q       0.046700
     64 HDYA        12.2220   -10.4770    23.3380 h1         1 00Q       0.046700
     65 HNEY        12.2130   -12.9630    24.1530 hn         1 00Q       0.418800
     66 HGY         12.5270   -12.8060    21.3820 hc         1 00Q       0.060200
     67 HGYA        13.7810   -12.2680    22.4860 hc         1 00Q       0.060200
     68 HNH2         9.4890   -13.0560    26.2250 hn         1 00Q       0.396300
     69 HNHA        10.6310   -14.0110    25.4690 hn         1 00Q       0.396300
     70 H31         19.4870   -11.3880    17.1680 ha         1 00Q       0.143000
     71 H41         20.2230   -12.7130    15.2090 ha         1 00Q       0.134000
     72 H51         18.5690   -13.7240    13.6860 ha         1 00Q       0.133000
     73 H61         16.1490   -13.4390    14.0810 ha         1 00Q       0.143000
@<TRIPOS>BOND
     1     1     2 1   
     2     1    39 1   
     3     1    40 1   
     4     2     3 1   
     5     2     5 1   
     6     2    41 1   
     7     3     4 2   
     8     3    12 1   
     9     5     6 1   
    10     5    42 1   
    11     5    43 1   
    12     6     7 ar  
    13     6     8 ar  
    14     7     9 ar  
    15     7    44 1   
    16     8    10 ar  
    17     8    45 1   
    18     9    11 ar  
    19     9    46 1   
    20    10    11 ar  
    21    10    47 1   
    22    11    48 1   
    23    12    13 1   
    24    12    18 1   
    25    13    14 1   
    26    13    16 1   
    27    13    49 1   
    28    14    15 2   
    29    14    20 1   
    30    16    17 1   
    31    16    50 1   
    32    16    51 1   
    33    17    18 1   
    34    17    52 1   
    35    17    53 1   
    36    18    54 1   
    37    18    55 1   
    38    19    21 1   
    39    19    22 1   
    40    19    32 1   
    41    19    57 1   
    42    20    22 1   
    43    20    58 1   
    44    21    59 1   
    45    22    23 1   
    46    22    60 1   
    47    23    26 1   
    48    23    61 1   
    49    23    62 1   
    50    24    25 1   
    51    24    26 1   
    52    24    63 1   
    53    24    64 1   
    54    25    29 1   
    55    25    65 1   
    56    26    66 1   
    57    26    67 1   
    58    27    29 2   
    59    27    56 1   
    60    28    29 1   
    61    28    68 1   
    62    28    69 1   
    63    30    32 1   
    64    30    38 1   
    65    31    32 2   
    66    31    33 1   
    67    33    34 ar  
    68    33    38 ar  
    69    34    35 ar  
    70    34    70 1   
    71    35    36 ar  
    72    35    71 1   
    73    36    37 ar  
    74    36    72 1   
    75    37    38 ar  
    76    37    73 1   
@<TRIPOS>SUBSTRUCTURE
     1 00Q         1 TEMP              0 ****  ****    0 ROOT
