@<TRIPOS>MOLECULE
00Q
   73    76     1     0     0
SMALL
No Charge or Current Charge


@<TRIPOS>ATOM
      1 N           16.2310   -17.6780    23.1690 n8         1 00Q      -0.977200
      2 CA          17.3020   -16.6230    23.1020 c3         1 00Q       0.094500
      3 C           16.8220   -15.2060    22.5870 c          1 00Q       0.624100
      4 O           15.7970   -14.6950    23.0340 o          1 00Q      -0.629100
      5 CB          17.9920   -16.4980    24.4860 c3         1 00Q      -0.069100
      6 CG          19.2700   -15.6700    24.4330 ca         1 00Q      -0.083300
      7 CD1         20.5080   -16.2910    24.1800 ca         1 00Q      -0.106500
      8 CD2         19.2210   -14.2720    24.6100 ca         1 00Q      -0.106500
      9 CE1         21.6820   -15.5240    24.0950 ca         1 00Q      -0.111000
     10 CE2         20.3950   -13.5050    24.5240 ca         1 00Q      -0.111000
     11 CZ          21.6260   -14.1300    24.2640 ca         1 00Q      -0.111000
     12 NX          17.5760   -14.5220    21.6000 n          1 00Q      -0.387800
     13 CAX         17.1540   -13.2020    21.0460 c5         1 00Q       0.033700
     14 CX          15.7390   -13.1720    20.3860 c          1 00Q       0.612100
     15 OX          15.1040   -14.1180    19.9370 o          1 00Q      -0.585100
     16 CBX         18.2130   -12.9830    19.9210 c5         1 00Q      -0.085400
     17 CGX         19.4650   -13.6750    20.5080 c5         1 00Q      -0.096400
     18 CDX         18.8650   -14.9940    21.0500 c5         1 00Q       0.107000
     19 CY          14.3770   -10.5340    18.4460 c3         1 00Q       0.133000
     20 NY          15.2860   -11.8680    20.3440 ns         1 00Q      -0.496900
     21 OY          13.1720   -10.2550    17.6960 oh         1 00Q      -0.645000
     22 CAY         14.0490   -11.4330    19.6770 c3         1 00Q       0.119700
     23 CBY         13.0980   -10.7540    20.6970 c3         1 00Q      -0.079400
     24 CDY         11.7090   -10.9780    22.8530 c3         1 00Q       0.222800
     25 NEY         11.3530   -11.8860    23.9520 nu         1 00Q      -0.897400
     26 CGY         12.7000   -11.6600    21.8900 c3         1 00Q      -0.096400
     27 NH1          9.9480   -10.4760    25.0660 n2         1 00Q      -0.897100
     28 NH2         10.5190   -12.5920    25.7470 nv         1 00Q      -1.070200
     29 CZY         10.5130   -11.5770    24.9240 c2         1 00Q       0.788100
     30 S1          15.1790   -12.6910    16.7230 ss         1 00Q       0.079800
     31 N11         16.6800   -10.5780    17.5020 nc         1 00Q      -0.539100
     32 C17         15.4650   -11.1500    17.5750 cd         1 00Q       0.348200
     33 C21         17.4650   -11.4310    16.7340 ca         1 00Q       0.089400
     34 C31         18.8210   -11.1910    16.4500 ca         1 00Q      -0.062000
     35 C41         19.5480   -12.1220    15.6800 ca         1 00Q      -0.114000
     36 C51         18.9190   -13.2870    15.1960 ca         1 00Q      -0.100000
     37 C61         17.5610   -13.5240    15.4810 ca         1 00Q      -0.069000
     38 C71         16.8630   -12.5800    16.2500 ca         1 00Q      -0.186000
     39 HN          16.5900   -18.5040    23.6620 hn         1 00Q       0.403500
     40 HNA         15.4710   -17.3420    23.7740 hn         1 00Q       0.403500
     41 HA          18.0510   -17.0000    22.3950 h1         1 00Q       0.071700
     42 HB          17.2880   -16.0590    25.2040 hc         1 00Q       0.056200
     43 HBA         18.2260   -17.5000    24.8670 hc         1 00Q       0.056200
     44 HD1         20.5600   -17.3690    24.0380 ha         1 00Q       0.116000
     45 HD2         18.2720   -13.7780    24.8060 ha         1 00Q       0.116000
     46 HE1         22.6350   -16.0090    23.8940 ha         1 00Q       0.113500
     47 HE2         20.3500   -12.4260    24.6550 ha         1 00Q       0.113500
     48 HZ          22.5350   -13.5360    24.1960 ha         1 00Q       0.113000
     49 HAX         17.2190   -12.4290    21.8230 h1         1 00Q       0.060700
     50 HBX         17.9130   -13.4640    18.9820 hc         1 00Q       0.067700
     51 HBXA        18.3800   -11.9220    19.7020 hc         1 00Q       0.067700
     52 HGX         20.2480   -13.8460    19.7610 hc         1 00Q       0.055700
     53 H17         19.9050   -13.0810    21.3180 hc         1 00Q       0.055700
     54 HDX         19.5210   -15.4460    21.8020 h1         1 00Q       0.055700
     55 H12         18.6980   -15.7230    20.2460 h1         1 00Q       0.055700
     56 HNH1         9.4230   -10.5030    25.9450 hn         1 00Q       0.373400
     57 HY          14.7780    -9.5890    18.8400 h1         1 00Q       0.058700
     58 HNY         15.8890   -11.1610    20.7490 hn         1 00Q       0.312500
     59 HOY         13.3810    -9.5390    17.0550 ho         1 00Q       0.455000
     60 HAY         13.5290   -12.3220    19.2930 h1         1 00Q       0.100700
     61 HBY         13.5720    -9.8420    21.0800 hc         1 00Q       0.051700
     62 HBYA        12.1830   -10.4400    20.1800 hc         1 00Q       0.051700
     63 HDY         10.8050   -10.6910    22.2970 h1         1 00Q       0.046700
     64 HDYA        12.1660   -10.0620    23.2540 h1         1 00Q       0.046700
     65 HNEY        12.0790   -12.5120    24.2730 hn         1 00Q       0.474000
     66 HGY         12.2500   -12.5830    21.5040 hc         1 00Q       0.060200
     67 HGYA        13.5980   -11.9480    22.4500 hc         1 00Q       0.060200
     68 HNH2         9.8110   -12.5200    26.4650 hn         1 00Q       0.451500
     69 HNHA        10.4970   -13.4710    25.2510 hn         1 00Q       0.451500
     70 H31         19.3060   -10.2950    16.8270 ha         1 00Q       0.125000
     71 H41         20.5970   -11.9400    15.4600 ha         1 00Q       0.116000
     72 H51         19.4830   -14.0040    14.6030 ha         1 00Q       0.115000
     73 H61         17.0660   -14.4210    15.1150 ha         1 00Q       0.125000
@<TRIPOS>BOND
     1     1     2 1   
     2     1    39 1   
     3     1    40 1   
     4     2     3 1   
     5     2     5 1   
     6     2    41 1   
     7     3     4 2   
     8     3    12 1   
     9     5     6 1   
    10     5    42 1   
    11     5    43 1   
    12     6     7 ar  
    13     6     8 ar  
    14     7     9 ar  
    15     7    44 1   
    16     8    10 ar  
    17     8    45 1   
    18     9    11 ar  
    19     9    46 1   
    20    10    11 ar  
    21    10    47 1   
    22    11    48 1   
    23    12    13 1   
    24    12    18 1   
    25    13    14 1   
    26    13    16 1   
    27    13    49 1   
    28    14    15 2   
    29    14    20 1   
    30    16    17 1   
    31    16    50 1   
    32    16    51 1   
    33    17    18 1   
    34    17    52 1   
    35    17    53 1   
    36    18    54 1   
    37    18    55 1   
    38    19    21 1   
    39    19    22 1   
    40    19    32 1   
    41    19    57 1   
    42    20    22 1   
    43    20    58 1   
    44    21    59 1   
    45    22    23 1   
    46    22    60 1   
    47    23    26 1   
    48    23    61 1   
    49    23    62 1   
    50    24    25 1   
    51    24    26 1   
    52    24    63 1   
    53    24    64 1   
    54    25    29 1   
    55    25    65 1   
    56    26    66 1   
    57    26    67 1   
    58    27    29 2   
    59    27    56 1   
    60    28    29 1   
    61    28    68 1   
    62    28    69 1   
    63    30    32 1   
    64    30    38 1   
    65    31    32 2   
    66    31    33 1   
    67    33    34 ar  
    68    33    38 ar  
    69    34    35 ar  
    70    34    70 1   
    71    35    36 ar  
    72    35    71 1   
    73    36    37 ar  
    74    36    72 1   
    75    37    38 ar  
    76    37    73 1   
@<TRIPOS>SUBSTRUCTURE
     1 00Q         1 TEMP              0 ****  ****    0 ROOT
