@<TRIPOS>MOLECULE
00R
   66    70     1     0     0
SMALL
No Charge or Current Charge


@<TRIPOS>ATOM
      1 C01          5.1730    -1.4890     0.7940 c6         1 00R      -0.090900
      2 C02          4.0540    -0.8210    -0.0440 c6         1 00R       0.108700
      3 C03          3.8850     0.6590     0.3910 c6         1 00R      -0.090900
      4 C04          5.2180     1.4390     0.2600 c6         1 00R      -0.068900
      5 C05          6.3450     0.7690     1.0930 c6         1 00R       0.016600
      6 C06          6.5120    -0.7160     0.6750 c6         1 00R      -0.068900
      7 N07         -2.7030    -1.0930    -1.4870 n          1 00R      -0.377400
      8 C08         -2.8780    -2.4240    -1.8080 c          1 00R       0.598000
      9 O09         -3.8680    -2.9350    -2.3110 o          1 00R      -0.528000
     10 N10         -1.6810    -3.0680    -1.4770 n          1 00R      -0.253400
     11 N11         -0.7400    -2.0560    -1.0600 n          1 00R      -0.257400
     12 C12         -1.4270    -0.8350    -1.0250 c          1 00R       0.604000
     13 O13         -0.9980     0.2380    -0.6270 o          1 00R      -0.528000
     14 C14         -1.2090    -4.3840    -1.9290 c6         1 00R       0.139200
     15 C15          0.0590    -4.7830    -1.1840 c2         1 00R      -0.197200
     16 C16          0.8170    -3.9160    -0.4820 c2         1 00R      -0.222200
     17 C17          0.5120    -2.4140    -0.3460 c6         1 00R       0.078900
     18 O19          1.7930    -0.9360    -1.8250 o          1 00R      -0.563100
     19 N20          2.7940    -1.5530     0.1250 ns         1 00R      -0.498900
     20 C22          7.6670     1.4950     0.9550 cc         1 00R      -0.206300
     21 N23          8.7350     1.4270     1.8270 na         1 00R      -0.332500
     22 C24          9.6960     2.2360     1.3220 cc         1 00R       0.615400
     23 N25          9.3560     2.8220     0.2130 nd         1 00R      -0.721000
     24 C26          8.0720     2.3680    -0.0360 cd         1 00R       0.262900
     25 N27         10.8800     2.4110     1.9020 nv         1 00R      -1.012900
     26 C32         -4.6070     0.1460    -0.4800 c3         1 00R      -0.333400
     27 S33         -5.8470     1.4160    -0.7560 sy         1 00R       1.053500
     28 O34         -5.1230     2.6820    -0.9240 o          1 00R      -0.516500
     29 O35         -6.7450     0.9070    -1.8010 o          1 00R      -0.516500
     30 C36         -6.7410     1.4580     0.8110 ca         1 00R      -0.269500
     31 C37         -6.3130     2.3140     1.8480 ca         1 00R      -0.015500
     32 C38         -7.0060     2.3370     3.0710 ca         1 00R      -0.128500
     33 C39         -8.1230     1.5070     3.2660 ca         1 00R      -0.054000
     34 C40         -8.5480     0.6500     2.2370 ca         1 00R      -0.128500
     35 C41         -7.8610     0.6220     1.0110 ca         1 00R      -0.015500
     36 H01          4.8720    -1.5400     1.8500 hc         1 00R       0.048950
     37 H01A         5.3180    -2.5260     0.4610 hc         1 00R       0.048950
     38 H02          4.3400    -0.8530    -1.1070 h1         1 00R       0.083700
     39 H03          3.1160     1.1440    -0.2240 hc         1 00R       0.048950
     40 H03A         3.5290     0.7060     1.4300 hc         1 00R       0.048950
     41 H04          5.5030     1.4820    -0.8010 hc         1 00R       0.049200
     42 H04A         5.0730     2.4760     0.5910 hc         1 00R       0.049200
     43 H05          6.0410     0.7920     2.1490 hc         1 00R       0.050700
     44 H06          7.2720    -1.1990     1.3040 hc         1 00R       0.049200
     45 H06A         6.8810    -0.7730    -0.3590 hc         1 00R       0.049200
     46 H14         -1.9980    -5.1300    -1.7570 h1         1 00R       0.076700
     47 H14A        -1.0130    -4.3450    -3.0100 h1         1 00R       0.076700
     48 H15          0.3300    -5.8390    -1.2430 ha         1 00R       0.193000
     49 H16          1.7130    -4.2700     0.0340 ha         1 00R       0.192000
     50 H17          0.3510    -2.1960     0.7190 h1         1 00R       0.064700
     51 HN20         2.6690    -2.0950     0.9720 hn         1 00R       0.309500
     52 H26          7.5190     2.6930    -0.9090 h4         1 00R       0.037100
     53 HN27        11.1900     1.7040     2.5580 hn         1 00R       0.450500
     54 HN2A        11.5940     2.8520     1.3340 hn         1 00R       0.450500
     55 H31         -3.2120     0.8890    -1.9720 h1         1 00R       0.088700
     56 H31A        -4.3340    -0.3380    -2.5810 h1         1 00R       0.088700
     57 H32         -5.1400    -0.7790    -0.2350 h1         1 00R       0.106700
     58 H32A        -4.0070     0.4610     0.3800 h1         1 00R       0.106700
     59 H37         -5.4470     2.9620     1.7130 ha         1 00R       0.139500
     60 H38         -6.6750     2.9980     3.8690 ha         1 00R       0.122000
     61 H39         -8.6560     1.5260     4.2140 ha         1 00R       0.118000
     62 H40         -9.4110     0.0070     2.3890 ha         1 00R       0.122000
     63 H41         -8.2010    -0.0490     0.2230 ha         1 00R       0.139500
     64 HN23         8.8050     0.8930     2.6820 hn         1 00R       0.347000
     65 C18          1.7370    -1.5480    -0.7640 c          1 00R       0.609100
     66 C31         -3.7170    -0.0540    -1.7170 c3         1 00R       0.152000
@<TRIPOS>BOND
     1     1     2 1   
     2     1     6 1   
     3     1    36 1   
     4     1    37 1   
     5     2     3 1   
     6     2    19 1   
     7     2    38 1   
     8     3     4 1   
     9     3    39 1   
    10     3    40 1   
    11     4     5 1   
    12     4    41 1   
    13     4    42 1   
    14     5     6 1   
    15     5    20 1   
    16     5    43 1   
    17     6    44 1   
    18     6    45 1   
    19     7     8 1   
    20     7    12 1   
    21     7    66 1   
    22     8     9 2   
    23     8    10 1   
    24    10    11 1   
    25    10    14 1   
    26    11    12 1   
    27    11    17 1   
    28    12    13 2   
    29    14    15 1   
    30    14    46 1   
    31    14    47 1   
    32    15    16 2   
    33    15    48 1   
    34    16    17 1   
    35    16    49 1   
    36    17    50 1   
    37    17    65 1   
    38    18    65 2   
    39    19    51 1   
    40    19    65 1   
    41    20    21 1   
    42    20    24 2   
    43    21    22 1   
    44    21    64 1   
    45    22    23 2   
    46    22    25 1   
    47    23    24 1   
    48    24    52 1   
    49    25    53 1   
    50    25    54 1   
    51    26    27 1   
    52    26    57 1   
    53    26    58 1   
    54    26    66 1   
    55    27    28 2   
    56    27    29 2   
    57    27    30 1   
    58    30    31 ar  
    59    30    35 ar  
    60    31    32 ar  
    61    31    59 1   
    62    32    33 ar  
    63    32    60 1   
    64    33    34 ar  
    65    33    61 1   
    66    34    35 ar  
    67    34    62 1   
    68    35    63 1   
    69    55    66 1   
    70    56    66 1   
@<TRIPOS>SUBSTRUCTURE
     1 00R         1 TEMP              0 ****  ****    0 ROOT
