@<TRIPOS>MOLECULE
00R
   66    70     1     0     0
SMALL
bcc


@<TRIPOS>ATOM
      1 C01          4.9630    -1.3660     1.0100 c6         1 00R      -0.090900
      2 C02          3.8870    -0.8090     0.0860 c6         1 00R       0.108700
      3 C03          3.7270     0.6970     0.2810 c6         1 00R      -0.090900
      4 C04          5.0490     1.4250     0.0730 c6         1 00R      -0.068900
      5 C05          6.1380     0.8800     0.9960 c6         1 00R       0.016600
      6 C06          6.2850    -0.6360     0.8010 c6         1 00R      -0.068900
      7 N07         -2.4270    -0.9760    -1.3810 n          1 00R      -0.511400
      8 C08         -2.7250    -2.2940    -1.6610 c          1 00R       0.807500
      9 O09         -3.7540    -2.7240    -2.1350 o          1 00R      -0.603500
     10 N10         -1.6200    -3.0020    -1.3000 n          1 00R      -0.320400
     11 N11         -0.6040    -2.1000    -1.0030 n          1 00R      -0.324400
     12 C12         -1.1330    -0.8520    -0.9180 c          1 00R       0.813500
     13 O13         -0.5860     0.1470    -0.5060 o          1 00R      -0.603500
     14 C14         -1.2270    -4.2580    -1.8970 c6         1 00R       0.139200
     15 C15         -0.0040    -4.7610    -1.2050 c2         1 00R      -0.147200
     16 C16          0.7510    -4.0020    -0.4240 c2         1 00R      -0.172200
     17 C17          0.5110    -2.5370    -0.2050 c6         1 00R       0.078900
     18 O19          1.9390    -1.5430    -1.8620 o          1 00R      -0.563100
     19 N20          2.6310    -1.5040     0.2960 ns         1 00R      -0.565900
     20 C22          7.4290     1.5930     0.7840 cc         1 00R      -0.220900
     21 N23          8.5410     1.3800     1.5790 na         1 00R      -0.332900
     22 C24          9.5450     2.1520     1.1050 cc         1 00R       0.615400
     23 N25          9.1660     2.8480     0.0650 nd         1 00R      -0.721000
     24 C26          7.8460     2.5060    -0.1360 cd         1 00R       0.328200
     25 N27         10.7720     2.2250     1.7250 nv         1 00R      -0.902500
     26 C32         -4.3330     0.1660    -0.3680 c3         1 00R      -0.222600
     27 S33         -5.4320     1.5710    -0.5520 sy         1 00R       1.084300
     28 O34         -4.6340     2.7880    -0.4240 o          1 00R      -0.587300
     29 O35         -6.2150     1.3690    -1.7690 o          1 00R      -0.587300
     30 C36         -6.5080     1.4450     0.8480 ca         1 00R      -0.269500
     31 C37         -6.1760     2.1150     2.0180 ca         1 00R      -0.033500
     32 C38         -7.0190     2.0030     3.1130 ca         1 00R      -0.146500
     33 C39         -8.1710     1.2310     3.0300 ca         1 00R      -0.072000
     34 C40         -8.4900     0.5680     1.8510 ca         1 00R      -0.146500
     35 C41         -7.6570     0.6720     0.7470 ca         1 00R      -0.033500
     36 H01          4.6430    -1.2590     2.0540 hc         1 00R       0.048950
     37 H01A         5.0930    -2.4340     0.8250 hc         1 00R       0.048950
     38 H02          4.1930    -0.9960    -0.9470 h1         1 00R       0.083700
     39 H03          2.9730     1.0800    -0.4090 hc         1 00R       0.048950
     40 H03A         3.3570     0.8880     1.2940 hc         1 00R       0.048950
     41 H04          5.3680     1.3150    -0.9690 hc         1 00R       0.049200
     42 H04A         4.9130     2.4950     0.2480 hc         1 00R       0.049200
     43 H05          5.8100     1.0480     2.0320 hc         1 00R       0.050700
     44 H06          7.0350    -1.0390     1.4860 hc         1 00R       0.049200
     45 H06A         6.6530    -0.8270    -0.2120 hc         1 00R       0.049200
     46 H14         -2.0490    -4.9610    -1.7650 h1         1 00R       0.076700
     47 H14A        -1.0500    -4.1540    -2.9740 h1         1 00R       0.076700
     48 H15          0.2460    -5.8020    -1.3610 ha         1 00R       0.143000
     49 H16          1.6120    -4.4150     0.0850 ha         1 00R       0.142000
     50 H17          0.3300    -2.3490     0.8610 h1         1 00R       0.064700
     51 HN20         2.3470    -1.6630     1.2500 hn         1 00R       0.309500
     52 H26          7.2730     2.9360    -0.9430 h4         1 00R       0.037100
     53 HN27        11.1280     1.3420     2.0600 hn         1 00R       0.395300
     54 HN2A        11.4600     2.6840     1.1480 hn         1 00R       0.395300
     55 H31         -2.7700     1.0360    -1.5910 h1         1 00R       0.088700
     56 H31A        -3.8800    -0.0020    -2.4810 h1         1 00R       0.088700
     57 H32         -4.9560    -0.7290    -0.3300 h1         1 00R       0.106700
     58 H32A        -3.8160     0.2790     0.5860 h1         1 00R       0.106700
     59 H37         -5.2810     2.7190     2.0800 ha         1 00R       0.157500
     60 H38         -6.7770     2.5230     4.0300 ha         1 00R       0.140000
     61 H39         -8.8250     1.1470     3.8870 ha         1 00R       0.136000
     62 H40         -9.3890    -0.0290     1.7890 ha         1 00R       0.140000
     63 H41         -7.9080     0.1610    -0.1730 ha         1 00R       0.157500
     64 HN23         8.5840     0.7820     2.3890 hn         1 00R       0.296700
     65 C18          1.7640    -1.7810    -0.6820 c          1 00R       0.676100
     66 C31         -3.3520     0.1170    -1.5360 c3         1 00R       0.152000
@<TRIPOS>BOND
     1     1     2 1   
     2     1     6 1   
     3     1    36 1   
     4     1    37 1   
     5     2     3 1   
     6     2    19 1   
     7     2    38 1   
     8     3     4 1   
     9     3    39 1   
    10     3    40 1   
    11     4     5 1   
    12     4    41 1   
    13     4    42 1   
    14     5     6 1   
    15     5    20 1   
    16     5    43 1   
    17     6    44 1   
    18     6    45 1   
    19     7     8 1   
    20     7    12 1   
    21     7    66 1   
    22     8     9 2   
    23     8    10 1   
    24    10    11 1   
    25    10    14 1   
    26    11    12 1   
    27    11    17 1   
    28    12    13 2   
    29    14    15 1   
    30    14    46 1   
    31    14    47 1   
    32    15    16 2   
    33    15    48 1   
    34    16    17 1   
    35    16    49 1   
    36    17    50 1   
    37    17    65 1   
    38    18    65 2   
    39    19    51 1   
    40    19    65 1   
    41    20    21 1   
    42    20    24 2   
    43    21    22 1   
    44    21    64 1   
    45    22    23 2   
    46    22    25 1   
    47    23    24 1   
    48    24    52 1   
    49    25    53 1   
    50    25    54 1   
    51    26    27 1   
    52    26    57 1   
    53    26    58 1   
    54    26    66 1   
    55    27    28 2   
    56    27    29 2   
    57    27    30 1   
    58    30    31 ar  
    59    30    35 ar  
    60    31    32 ar  
    61    31    59 1   
    62    32    33 ar  
    63    32    60 1   
    64    33    34 ar  
    65    33    61 1   
    66    34    35 ar  
    67    34    62 1   
    68    35    63 1   
    69    55    66 1   
    70    56    66 1   
@<TRIPOS>SUBSTRUCTURE
     1 00R         1 TEMP              0 ****  ****    0 ROOT
