@<TRIPOS>MOLECULE
00S
   22    22     1     0     0
SMALL
No Charge or Current Charge


@<TRIPOS>ATOM
      1 N23          3.9350     0.0190     0.8560 n8         1 00S      -1.001200
      2 C16          3.2350     0.0540    -0.4430 c3         1 00S       0.196100
      3 C17          1.7210     0.0260    -0.2670 ca         1 00S      -0.071300
      4 C22          1.0190    -1.1920    -0.3230 ca         1 00S      -0.112500
      5 C21         -0.3780    -1.2170    -0.1660 ca         1 00S      -0.079500
      6 C24         -1.1080    -0.0220     0.0350 ca         1 00S      -0.147900
      7 C27         -2.5960    -0.0660     0.2330 ce         1 00S       0.660800
      8 N35         -3.2310    -1.1260     0.5230 n2         1 00S      -0.829100
      9 N34         -3.3060     1.0560    -0.0140 nv         1 00S      -1.075200
     10 C19         -0.3890     1.1960     0.1130 ca         1 00S      -0.079500
     11 C18          1.0080     1.2170    -0.0440 ca         1 00S      -0.112500
     12 HN23         3.7020    -0.8620     1.3290 hn         1 00S       0.398000
     13 H16          3.5300     0.9660    -0.9810 h1         1 00S       0.036700
     14 H16A         3.5550    -0.8110    -1.0420 h1         1 00S       0.036700
     15 H22          1.5550    -2.1240    -0.4880 ha         1 00S       0.122000
     16 H21         -0.8950    -2.1730    -0.2120 ha         1 00S       0.125500
     17 HN35        -4.1830    -0.8600     0.7950 hn         1 00S       0.369400
     18 HN34        -2.8050     1.7700    -0.5310 hn         1 00S       0.459500
     19 HN3A        -4.2710     0.9230    -0.2940 hn         1 00S       0.459500
     20 H19         -0.9040     2.1340     0.3070 ha         1 00S       0.125500
     21 H18          1.5400     2.1640     0.0170 ha         1 00S       0.122000
     22 H2           4.9460    -0.0560     0.6860 hn         1 00S       0.398000
@<TRIPOS>BOND
     1     1     2 1   
     2     1    12 1   
     3     1    22 1   
     4     2     3 1   
     5     2    13 1   
     6     2    14 1   
     7     3     4 ar  
     8     3    11 ar  
     9     4     5 ar  
    10     4    15 1   
    11     5     6 ar  
    12     5    16 1   
    13     6     7 1   
    14     6    10 ar  
    15     7     8 2   
    16     7     9 1   
    17     8    17 1   
    18     9    18 1   
    19     9    19 1   
    20    10    11 ar  
    21    10    20 1   
    22    11    21 1   
@<TRIPOS>SUBSTRUCTURE
     1 00S         1 TEMP              0 ****  ****    0 ROOT
