@<TRIPOS>MOLECULE
00S
   22    22     1     0     0
SMALL
bcc


@<TRIPOS>ATOM
      1 N23          3.8960     0.7260     0.4650 n8         1 00S      -0.890800
      2 C16          3.1960    -0.2670    -0.3270 c3         1 00S       0.196100
      3 C17          1.6990    -0.1900    -0.1720 ca         1 00S      -0.071300
      4 C22          0.9090    -1.2860    -0.5210 ca         1 00S      -0.130500
      5 C21         -0.4690    -1.2350    -0.4260 ca         1 00S      -0.097500
      6 C24         -1.1090    -0.0800     0.0230 ca         1 00S      -0.147900
      7 C27         -2.5930    -0.0540     0.1250 ce         1 00S       0.660800
      8 N35         -3.2210    -1.1600     0.2550 n2         1 00S      -0.829100
      9 N34         -3.1580     1.1910     0.1170 nv         1 00S      -0.964800
     10 C19         -0.3230     1.0120     0.3840 ca         1 00S      -0.097500
     11 C18          1.0610     0.9570     0.2870 ca         1 00S      -0.130500
     12 HN23         3.8430     0.4810     1.4460 hn         1 00S       0.342800
     13 H16          3.4390    -0.0870    -1.3790 h1         1 00S       0.036700
     14 H16A         3.5110    -1.3000    -0.1240 h1         1 00S       0.036700
     15 H22          1.3830    -2.1950    -0.8740 ha         1 00S       0.140000
     16 H21         -1.0620    -2.0960    -0.7040 ha         1 00S       0.143500
     17 HN35        -4.2260    -1.0100     0.2770 hn         1 00S       0.369400
     18 HN34        -2.6830     1.9270    -0.3780 hn         1 00S       0.404300
     19 HN3A        -4.1620     1.2400     0.0410 hn         1 00S       0.404300
     20 H19         -0.7800     1.9160     0.7660 ha         1 00S       0.143500
     21 H18          1.6510     1.8140     0.5820 ha         1 00S       0.140000
     22 H2           4.8780     0.7100     0.2260 hn         1 00S       0.342800
@<TRIPOS>BOND
     1     1     2 1   
     2     1    12 1   
     3     1    22 1   
     4     2     3 1   
     5     2    13 1   
     6     2    14 1   
     7     3     4 ar  
     8     3    11 ar  
     9     4     5 ar  
    10     4    15 1   
    11     5     6 ar  
    12     5    16 1   
    13     6     7 1   
    14     6    10 ar  
    15     7     8 2   
    16     7     9 1   
    17     8    17 1   
    18     9    18 1   
    19     9    19 1   
    20    10    11 ar  
    21    10    20 1   
    22    11    21 1   
@<TRIPOS>SUBSTRUCTURE
     1 00S         1 TEMP              0 ****  ****    0 ROOT
