@<TRIPOS>MOLECULE
00T
   22    22     1     0     0
SMALL
No Charge or Current Charge


@<TRIPOS>ATOM
      1 N19         -2.0430    -2.4620    -0.8360 n8         1 00T      -0.998200
      2 C10         -1.6880    -1.7220     0.3950 c3         1 00T       0.186100
      3 C6          -0.6980    -0.5910     0.1130 ca         1 00T      -0.046300
      4 C5          -1.1250     0.7220    -0.2260 ca         1 00T      -0.052300
      5 C32         -2.6040     1.0910    -0.3450 c3         1 00T       0.186100
      6 N33         -3.1650     1.5400     0.9480 n8         1 00T      -0.996200
      7 C4          -0.1590     1.7230    -0.4670 ca         1 00T      -0.107000
      8 C3           1.2120     1.4330    -0.3770 ca         1 00T      -0.102000
      9 C2           1.6310     0.1380    -0.0430 ca         1 00T       0.121000
     10 Cl1          3.3470    -0.2280     0.0710 cl         1 00T      -0.210000
     11 C7           0.6830    -0.8670     0.2000 ca         1 00T      -0.109000
     12 HN19        -1.1930    -2.8930    -1.2190 hn         1 00T       0.394000
     13 H10         -2.6040    -1.3280     0.8560 h1         1 00T       0.047200
     14 H10A        -1.2410    -2.4270     1.1110 h1         1 00T       0.047200
     15 H32         -2.7180     1.9040    -1.0770 h1         1 00T       0.047200
     16 H32A        -3.1870     0.2360    -0.7160 h1         1 00T       0.047200
     17 HN33        -2.6630     2.3830     1.2490 hn         1 00T       0.393000
     18 HN3A        -4.1270     1.8670     0.7990 hn         1 00T       0.393000
     19 H4          -0.4740     2.7310    -0.7280 ha         1 00T       0.112000
     20 H3           1.9480     2.2100    -0.5650 ha         1 00T       0.128000
     21 H7           1.0230    -1.8670     0.4590 ha         1 00T       0.124000
     22 H2          -2.6320    -3.2660    -0.5850 hn         1 00T       0.394000
@<TRIPOS>BOND
     1     1     2 1   
     2     1    12 1   
     3     1    22 1   
     4     2     3 1   
     5     2    13 1   
     6     2    14 1   
     7     3     4 ar  
     8     3    11 ar  
     9     4     5 1   
    10     4     7 ar  
    11     5     6 1   
    12     5    15 1   
    13     5    16 1   
    14     6    17 1   
    15     6    18 1   
    16     7     8 ar  
    17     7    19 1   
    18     8     9 ar  
    19     8    20 1   
    20     9    10 1   
    21     9    11 ar  
    22    11    21 1   
@<TRIPOS>SUBSTRUCTURE
     1 00T         1 TEMP              0 ****  ****    0 ROOT
