@<TRIPOS>MOLECULE
00T
   22    22     1     0     0
SMALL
abcg2


@<TRIPOS>ATOM
      1 N19         -2.1720    -2.2040    -0.8110 n8         1 00T      -0.998200
      2 C10         -1.6490    -1.6660     0.4390 c3         1 00T       0.186100
      3 C6          -0.6640    -0.5600     0.1590 ca         1 00T      -0.046300
      4 C5          -1.0870     0.7020    -0.2790 ca         1 00T      -0.052300
      5 C32         -2.5480     1.0470    -0.3920 c3         1 00T       0.186100
      6 N33         -3.1140     1.2880     0.9300 n8         1 00T      -0.996200
      7 C4          -0.1300     1.6690    -0.5620 ca         1 00T      -0.107000
      8 C3           1.2300     1.4190    -0.4280 ca         1 00T      -0.102000
      9 C2           1.6270     0.1670     0.0040 ca         1 00T       0.121000
     10 CL1          3.3180    -0.1840     0.1850 cl         1 00T      -0.210000
     11 C7           0.6940    -0.8180     0.2940 ca         1 00T      -0.109000
     12 HN19        -1.4300    -2.6830    -1.3080 hn         1 00T       0.394000
     13 H10         -2.4840    -1.2640     1.0140 h1         1 00T       0.047200
     14 H10A        -1.1610    -2.4200     1.0700 h1         1 00T       0.047200
     15 H32         -2.6550     1.8980    -1.0760 h1         1 00T       0.047200
     16 H32A        -3.0820     0.2100    -0.8440 h1         1 00T       0.047200
     17 HN33        -2.7260     2.1430     1.3100 hn         1 00T       0.393000
     18 HN3A        -4.1090     1.4540     0.8390 hn         1 00T       0.393000
     19 H4          -0.4490     2.6480    -0.8990 ha         1 00T       0.112000
     20 H3           1.9570     2.1860    -0.6540 ha         1 00T       0.128000
     21 H7           1.0240    -1.7940     0.6290 ha         1 00T       0.124000
     22 H2          -2.8670    -2.9100    -0.6030 hn         1 00T       0.394000
@<TRIPOS>BOND
     1     1     2 1   
     2     1    12 1   
     3     1    22 1   
     4     2     3 1   
     5     2    13 1   
     6     2    14 1   
     7     3     4 ar  
     8     3    11 ar  
     9     4     5 1   
    10     4     7 ar  
    11     5     6 1   
    12     5    15 1   
    13     5    16 1   
    14     6    17 1   
    15     6    18 1   
    16     7     8 ar  
    17     7    19 1   
    18     8     9 ar  
    19     8    20 1   
    20     9    10 1   
    21     9    11 ar  
    22    11    21 1   
@<TRIPOS>SUBSTRUCTURE
     1 00T         1 TEMP              0 ****  ****    0 ROOT
