@<TRIPOS>MOLECULE
00U
   39    41     1     0     0
SMALL
bcc


@<TRIPOS>ATOM
      1 C1           2.3850     0.8750     0.4780 c5         1 00U      -0.025300
      2 N1           2.2270    -1.4660     0.2390 n3         1 00U      -0.424600
      3 O1          -0.1040     1.0640    -0.6770 o          1 00U      -0.638500
      4 C2           3.5930     0.1730     1.1300 c5         1 00U      -0.073400
      5 N2           1.5240    -0.2370     0.1210 n          1 00U      -0.324200
      6 C3           3.0820    -1.2350     1.3900 c5         1 00U       0.130800
      7 N3          -1.2120    -1.1770    -2.0280 n8         1 00U      -0.896800
      8 C4           1.3280    -2.5890     0.3580 c6         1 00U       0.138800
      9 C5           0.3540    -2.5610    -0.8000 c6         1 00U      -0.069400
     10 C6          -0.5170    -1.3040    -0.7610 c6         1 00U       0.114200
     11 C7           0.3340    -0.0630    -0.4540 c          1 00U       0.675500
     12 C8           2.8320     1.7390    -0.7190 c          1 00U       0.938600
     13 C9          -1.5730    -1.4600     0.3660 c3         1 00U      -0.017100
     14 C10         -2.6110    -0.3780     0.4560 ca         1 00U      -0.064300
     15 C11         -2.4620     0.6890     1.3400 ca         1 00U      -0.109000
     16 C12         -3.4280     1.6800     1.4350 ca         1 00U      -0.135000
     17 C13         -4.5670     1.6220     0.6410 ca         1 00U      -0.137000
     18 C14         -4.7330     0.5600    -0.2380 ca         1 00U      -0.135000
     19 C15         -3.7650    -0.4320    -0.3250 ca         1 00U      -0.109000
     20 H1           1.8660     1.4980     1.2090 h1         1 00U       0.052700
     21 H2           4.4390     0.1360     0.4410 hc         1 00U       0.052700
     22 H2A          3.9200     0.6750     2.0380 hc         1 00U       0.052700
     23 H3           2.5170    -1.2820     2.3330 h1         1 00U       0.026700
     24 H3A          3.8720    -1.9850     1.4200 h1         1 00U       0.026700
     25 HN3         -1.7030    -0.2910    -2.0560 hn         1 00U       0.358800
     26 HN3A        -0.5410    -1.1470    -2.7870 hn         1 00U       0.358800
     27 H4           1.9320    -3.4970     0.3300 h1         1 00U       0.028200
     28 H4A          0.7950    -2.5870     1.3220 h1         1 00U       0.028200
     29 H5           0.9220    -2.5830    -1.7360 hc         1 00U       0.054700
     30 H5A         -0.2800    -3.4490    -0.7870 hc         1 00U       0.054700
     31 H9          -2.0670    -2.4190     0.1890 hc         1 00U       0.042700
     32 H9A         -1.0620    -1.5460     1.3270 hc         1 00U       0.042700
     33 H11         -1.5810     0.7400     1.9680 ha         1 00U       0.133000
     34 H12         -3.2930     2.4980     2.1320 ha         1 00U       0.120000
     35 H13         -5.3240     2.3920     0.7160 ha         1 00U       0.116000
     36 H14         -5.6220     0.5000    -0.8530 ha         1 00U       0.120000
     37 H15         -3.9090    -1.2620    -1.0060 ha         1 00U       0.133000
     38 OXT          3.1520     2.9090    -0.4270 o          1 00U      -0.821800
     39 O2           2.8970     1.1880    -1.8290 o          1 00U      -0.821800
@<TRIPOS>BOND
     1     1     4 1   
     2     1     5 1   
     3     1    12 1   
     4     1    20 1   
     5     2     5 1   
     6     2     6 1   
     7     2     8 1   
     8     3    11 2   
     9     4     6 1   
    10     4    21 1   
    11     4    22 1   
    12     5    11 1   
    13     6    23 1   
    14     6    24 1   
    15     7    10 1   
    16     7    25 1   
    17     7    26 1   
    18     8     9 1   
    19     8    27 1   
    20     8    28 1   
    21     9    10 1   
    22     9    29 1   
    23     9    30 1   
    24    10    11 1   
    25    10    13 1   
    26    12    38 1   
    27    12    39 1   
    28    13    14 1   
    29    13    31 1   
    30    13    32 1   
    31    14    15 ar  
    32    14    19 ar  
    33    15    16 ar  
    34    15    33 1   
    35    16    17 ar  
    36    16    34 1   
    37    17    18 ar  
    38    17    35 1   
    39    18    19 ar  
    40    18    36 1   
    41    19    37 1   
@<TRIPOS>SUBSTRUCTURE
     1 00U         1 TEMP              0 ****  ****    0 ROOT
