@<TRIPOS>MOLECULE
00U
   39    41     1     0     0
SMALL
No Charge or Current Charge


@<TRIPOS>ATOM
      1 C1           2.5790     0.8450     0.5500 c5         1 00U      -0.025300
      2 N1           2.2870    -1.5560     0.2040 n3         1 00U      -0.424600
      3 O1          -0.0400     1.1130    -0.5430 o          1 00U      -0.563000
      4 C2           3.8510     0.0310     0.9480 c5         1 00U      -0.073400
      5 N2           1.7080    -0.2610     0.0790 n          1 00U      -0.257200
      6 C3           3.2380    -1.3500     1.3180 c5         1 00U       0.130800
      7 N3          -1.2510    -1.1420    -2.0280 n8         1 00U      -1.007200
      8 C4           1.3310    -2.6640     0.3830 c6         1 00U       0.138800
      9 C5           0.2980    -2.6110    -0.7600 c6         1 00U      -0.069400
     10 C6          -0.5380    -1.2940    -0.7120 c6         1 00U       0.114200
     11 C7           0.3820    -0.0320    -0.3960 c          1 00U       0.533000
     12 C8           2.9410     1.9450    -0.5050 c          1 00U       0.728000
     13 C9          -1.6030    -1.3930     0.4460 c3         1 00U      -0.017100
     14 C10         -2.7090    -0.3340     0.4500 ca         1 00U      -0.064300
     15 C11         -2.5930     0.8160     1.2570 ca         1 00U      -0.091000
     16 C12         -3.6180     1.7770     1.2790 ca         1 00U      -0.117000
     17 C13         -4.7730     1.5920     0.5020 ca         1 00U      -0.119000
     18 C14         -4.9040     0.4420    -0.2950 ca         1 00U      -0.117000
     19 C15         -3.8780    -0.5190    -0.3170 ca         1 00U      -0.091000
     20 H1           2.1280     1.3290     1.4260 h1         1 00U       0.052700
     21 H2           4.5480    -0.0740     0.1070 hc         1 00U       0.052700
     22 H2A          4.4030     0.4870     1.7770 hc         1 00U       0.052700
     23 H3           2.7160    -1.2990     2.2840 h1         1 00U       0.026700
     24 H3A          3.9930    -2.1450     1.3730 h1         1 00U       0.026700
     25 HN3         -1.8650    -0.3230    -1.9500 hn         1 00U       0.414000
     26 HN3A        -0.5710    -0.8500    -2.7400 hn         1 00U       0.414000
     27 H4           1.8610    -3.6260     0.3570 h1         1 00U       0.028200
     28 H4A          0.8250    -2.5920     1.3560 h1         1 00U       0.028200
     29 H5           0.8340    -2.6820    -1.7170 hc         1 00U       0.054700
     30 H5A         -0.3570    -3.4910    -0.7130 hc         1 00U       0.054700
     31 H9          -2.0840    -2.3780     0.4110 hc         1 00U       0.042700
     32 H9A         -1.0900    -1.3700     1.4150 hc         1 00U       0.042700
     33 H11         -1.7040     0.9690     1.8650 ha         1 00U       0.115000
     34 H12         -3.5180     2.6640     1.9000 ha         1 00U       0.102000
     35 H13         -5.5670     2.3350     0.5190 ha         1 00U       0.098000
     36 H14         -5.8000     0.2940    -0.8930 ha         1 00U       0.102000
     37 H15         -3.9910    -1.4090    -0.9320 ha         1 00U       0.115000
     38 OXT          2.9290     3.1180    -0.1520 o          1 00U      -0.716500
     39 O2           3.2170     1.6260    -1.6550 o          1 00U      -0.716500
@<TRIPOS>BOND
     1     1     4 1   
     2     1     5 1   
     3     1    12 1   
     4     1    20 1   
     5     2     5 1   
     6     2     6 1   
     7     2     8 1   
     8     3    11 2   
     9     4     6 1   
    10     4    21 1   
    11     4    22 1   
    12     5    11 1   
    13     6    23 1   
    14     6    24 1   
    15     7    10 1   
    16     7    25 1   
    17     7    26 1   
    18     8     9 1   
    19     8    27 1   
    20     8    28 1   
    21     9    10 1   
    22     9    29 1   
    23     9    30 1   
    24    10    11 1   
    25    10    13 1   
    26    12    38 1   
    27    12    39 1   
    28    13    14 1   
    29    13    31 1   
    30    13    32 1   
    31    14    15 ar  
    32    14    19 ar  
    33    15    16 ar  
    34    15    33 1   
    35    16    17 ar  
    36    16    34 1   
    37    17    18 ar  
    38    17    35 1   
    39    18    19 ar  
    40    18    36 1   
    41    19    37 1   
@<TRIPOS>SUBSTRUCTURE
     1 00U         1 TEMP              0 ****  ****    0 ROOT
