@<TRIPOS>MOLECULE
00X
   22    23     1     0     0
SMALL
bcc


@<TRIPOS>ATOM
      1 N30         -1.7690     1.9380     0.0590 n8         1 00X      -0.851800
      2 O30         -2.1750    -0.5240     1.1630 oh         1 00X      -0.562800
      3 C31         -1.2120     0.7720    -0.5960 c5         1 00X       0.212800
      4 C32          0.2280     0.4950    -0.2480 ca         1 00X      -0.071300
      5 C33          1.2540     1.3830     0.0240 ca         1 00X      -0.100000
      6 C34          2.5240     0.8780     0.2990 ca         1 00X      -0.130000
      7 C35         -1.8950    -0.5520    -0.2160 c5         1 00X       0.144100
      8 C36          0.4560    -0.8790    -0.2440 ca         1 00X      -0.082300
      9 C37          1.7160    -1.3830     0.0290 ca         1 00X      -0.113000
     10 C38          2.7530    -0.4920     0.3000 ca         1 00X      -0.129000
     11 C39         -0.8240    -1.6020    -0.5580 c5         1 00X      -0.071100
     12 HN30        -1.3870     2.7690    -0.3750 hn         1 00X       0.337300
     13 HN3A        -2.7640     1.9820    -0.1270 hn         1 00X       0.337300
     14 HO30        -2.5890    -1.3600     1.3970 ho         1 00X       0.395000
     15 H31         -1.2760     0.8340    -1.6960 h1         1 00X       0.022700
     16 H33          1.0860     2.4530     0.0300 ha         1 00X       0.133000
     17 H34          3.3370     1.5580     0.5190 ha         1 00X       0.129000
     18 H35         -2.8110    -0.7080    -0.8000 h1         1 00X       0.030700
     19 H37          1.8960    -2.4510     0.0430 ha         1 00X       0.130000
     20 H38          3.7420    -0.8710     0.5240 ha         1 00X       0.128000
     21 H39         -0.9570    -2.5360    -0.0080 hc         1 00X       0.055700
     22 H39A        -0.8730    -1.8520    -1.6230 hc         1 00X       0.055700
@<TRIPOS>BOND
     1     1     3 1   
     2     1    12 1   
     3     1    13 1   
     4     2     7 1   
     5     2    14 1   
     6     3     4 1   
     7     3     7 1   
     8     3    15 1   
     9     4     5 ar  
    10     4     8 ar  
    11     5     6 ar  
    12     5    16 1   
    13     6    10 ar  
    14     6    17 1   
    15     7    11 1   
    16     7    18 1   
    17     8     9 ar  
    18     8    11 1   
    19     9    10 ar  
    20     9    19 1   
    21    10    20 1   
    22    11    21 1   
    23    11    22 1   
@<TRIPOS>SUBSTRUCTURE
     1 00X         1 TEMP              0 ****  ****    0 ROOT
