@<TRIPOS>MOLECULE
00X
   22    23     1     0     0
SMALL
No Charge or Current Charge


@<TRIPOS>ATOM
      1 N30         -1.7250     2.0010     0.1420 n8         1 00X      -0.962200
      2 O30         -2.4050    -0.6710     1.1200 oh         1 00X      -0.625000
      3 C31         -1.2270     0.8080    -0.5810 c5         1 00X       0.212800
      4 C32          0.2170     0.4970    -0.2490 ca         1 00X      -0.071300
      5 C33          1.2690     1.4090    -0.0400 ca         1 00X      -0.082000
      6 C34          2.5590     0.9120     0.2330 ca         1 00X      -0.112000
      7 C35         -1.9280    -0.5920    -0.2340 c5         1 00X       0.167300
      8 C36          0.4460    -0.8660    -0.2040 ca         1 00X      -0.082300
      9 C37          1.7260    -1.3780     0.0620 ca         1 00X      -0.095000
     10 C38          2.7870    -0.4790     0.2850 ca         1 00X      -0.111000
     11 C39         -0.8000    -1.6680    -0.4880 c5         1 00X      -0.071100
     12 HN30        -1.2680     2.8350    -0.2390 hn         1 00X       0.392500
     13 HN3A        -2.7150     2.1350    -0.0880 hn         1 00X       0.392500
     14 HO30        -2.8260    -1.5510     1.2200 ho         1 00X       0.434000
     15 H31         -1.3190     1.0180    -1.6560 h1         1 00X       0.022700
     16 H33          1.0940     2.4810    -0.0880 ha         1 00X       0.115000
     17 H34          3.3820     1.6040     0.4000 ha         1 00X       0.111000
     18 H35         -2.7750    -0.7630    -0.9130 h1         1 00X       0.030700
     19 H37          1.8970    -2.4510     0.0920 ha         1 00X       0.112000
     20 H38          3.7850    -0.8590     0.4930 ha         1 00X       0.110000
     21 H39         -0.9010    -2.5500     0.1550 hc         1 00X       0.055700
     22 H39A        -0.8150    -2.0180    -1.5270 hc         1 00X       0.055700
@<TRIPOS>BOND
     1     1     3 1   
     2     1    12 1   
     3     1    13 1   
     4     2     7 1   
     5     2    14 1   
     6     3     4 1   
     7     3     7 1   
     8     3    15 1   
     9     4     5 ar  
    10     4     8 ar  
    11     5     6 ar  
    12     5    16 1   
    13     6    10 ar  
    14     6    17 1   
    15     7    11 1   
    16     7    18 1   
    17     8     9 ar  
    18     8    11 1   
    19     9    10 ar  
    20     9    19 1   
    21    10    20 1   
    22    11    21 1   
    23    11    22 1   
@<TRIPOS>SUBSTRUCTURE
     1 00X         1 TEMP              0 ****  ****    0 ROOT
