@<TRIPOS>MOLECULE
00Y
   33    33     1     0     0
SMALL
bcc


@<TRIPOS>ATOM
      1 C           14.5340   -10.4270    18.8120 c3         1 00Y       0.111800
      2 N           15.3660   -11.9550    20.5070 n8         1 00Y      -0.890800
      3 O           13.3550    -9.9740    18.1980 oh         1 00Y      -0.593800
      4 CA          14.1520   -11.4950    19.8540 c3         1 00Y       0.181500
      5 CB          13.1930   -10.9120    20.8900 c3         1 00Y      -0.072400
      6 CD          11.6110   -11.3480    22.7950 c3         1 00Y       0.219800
      7 NE          11.1480   -12.3280    23.7510 nu         1 00Y      -0.845200
      8 CG          12.6890   -11.9380    21.8990 c3         1 00Y      -0.092400
      9 CZ          10.2510   -11.9770    24.7250 c2         1 00Y       0.786100
     10 C1X         15.4550   -10.9880    17.7650 cc         1 00Y       0.376700
     11 N1X         16.7430   -11.0850    17.8400 nd         1 00Y      -0.627000
     12 S1X         14.7750   -11.6310    16.3100 ss         1 00Y      -0.155300
     13 C2X         17.2580   -11.6960    16.7320 cd         1 00Y       0.336200
     14 C3X         16.3490   -12.0670    15.7940 cc         1 00Y      -0.213400
     15 NH1          9.9500   -10.7470    24.9250 n2         1 00Y      -0.890100
     16 NH2          9.7250   -13.0610    25.4000 nv         1 00Y      -0.957800
     17 HN          15.1360   -12.6490    21.2060 hn         1 00Y       0.347800
     18 HA          13.6230   -12.2980    19.3150 h1         1 00Y       0.026700
     19 HB          13.6930   -10.0920    21.4170 hc         1 00Y       0.059700
     20 HBA         12.3340   -10.4810    20.3740 hc         1 00Y       0.059700
     21 HD          10.7890   -10.9600    22.1790 h1         1 00Y       0.053700
     22 HDA         12.0170   -10.4930    23.3400 h1         1 00Y       0.053700
     23 HNE         11.0430   -13.2600    23.3810 hn         1 00Y       0.409800
     24 HG          12.2880   -12.8060    21.3630 hc         1 00Y       0.040200
     25 HGA         13.5030   -12.3050    22.5300 hc         1 00Y       0.040200
     26 H2X         18.3250   -11.8460    16.6500 h4         1 00Y       0.043100
     27 H3X         16.5270   -12.5460    14.8440 h4         1 00Y       0.179000
     28 HNH1         9.3420   -10.6540    25.7300 hn         1 00Y       0.376400
     29 HNH2         9.2780   -12.8430    26.2770 hn         1 00Y       0.395800
     30 HNHA        10.3230   -13.8690    25.4780 hn         1 00Y       0.395800
     31 H33         15.0690    -9.6260    19.3410 h1         1 00Y       0.080700
     32 H34         13.5420    -9.1530    17.7320 ho         1 00Y       0.416000
     33 H2          15.9650   -12.4320    19.8450 hn         1 00Y       0.347800
@<TRIPOS>BOND
     1     1     3 1   
     2     1     4 1   
     3     1    10 1   
     4     1    31 1   
     5     2     4 1   
     6     2    17 1   
     7     2    33 1   
     8     3    32 1   
     9     4     5 1   
    10     4    18 1   
    11     5     8 1   
    12     5    19 1   
    13     5    20 1   
    14     6     7 1   
    15     6     8 1   
    16     6    21 1   
    17     6    22 1   
    18     7     9 1   
    19     7    23 1   
    20     8    24 1   
    21     8    25 1   
    22     9    15 2   
    23     9    16 1   
    24    10    11 2   
    25    10    12 1   
    26    11    13 1   
    27    12    14 1   
    28    13    14 2   
    29    13    26 1   
    30    14    27 1   
    31    15    28 1   
    32    16    29 1   
    33    16    30 1   
@<TRIPOS>SUBSTRUCTURE
     1 00Y         1 TEMP              0 ****  ****    0 ROOT
