@<TRIPOS>MOLECULE
010
   16    16     1     0     0
SMALL
abcg2


@<TRIPOS>ATOM
      1 C            1.9440     0.1080    -0.5300 c3         1 010       0.208900
      2 O            2.6030    -0.3410     0.6370 oh         1 010      -0.654000
      3 C1          -0.2920     1.2320    -0.2420 ca         1 010      -0.089500
      4 C2          -1.6610     1.1830    -0.0010 ca         1 010      -0.114500
      5 C3          -2.2870    -0.0370     0.2080 ca         1 010      -0.104000
      6 C4          -1.5390    -1.2090     0.1730 ca         1 010      -0.114500
      7 C5          -0.1750    -1.1560    -0.0710 ca         1 010      -0.089500
      8 C6           0.4630     0.0650    -0.2850 ca         1 010      -0.088300
      9 H            2.2420     1.1290    -0.7970 h1         1 010       0.023200
     10 HA           2.1890    -0.5270    -1.3900 h1         1 010       0.023200
     11 HO           3.5430    -0.4060     0.4420 ho         1 010       0.440000
     12 H2          -2.2360     2.1000     0.0300 ha         1 010       0.112000
     13 H3          -3.3520    -0.0780     0.3950 ha         1 010       0.111000
     14 H4          -2.0220    -2.1650     0.3340 ha         1 010       0.112000
     15 H5           0.3990    -2.0750    -0.1070 ha         1 010       0.112500
     16 H1           0.1890     2.1910    -0.4010 ha         1 010       0.112500
@<TRIPOS>BOND
     1     1     2 1   
     2     1     8 1   
     3     1     9 1   
     4     1    10 1   
     5     2    11 1   
     6     3     4 ar  
     7     3     8 ar  
     8     3    16 1   
     9     4     5 ar  
    10     4    12 1   
    11     5     6 ar  
    12     5    13 1   
    13     6     7 ar  
    14     6    14 1   
    15     7     8 ar  
    16     7    15 1   
@<TRIPOS>SUBSTRUCTURE
     1 010         1 TEMP              0 ****  ****    0 ROOT
