@<TRIPOS>MOLECULE
010
   16    16     1     0     0
SMALL
No Charge or Current Charge


@<TRIPOS>ATOM
      1 C            1.9610     0.0180    -0.5430 c3         1 010       0.208900
      2 O            2.6860     0.0220     0.6920 oh         1 010      -0.654000
      3 C1          -0.2510     1.2160    -0.1510 ca         1 010      -0.089500
      4 C2          -1.6360     1.2030     0.0900 ca         1 010      -0.114500
      5 C3          -2.3190    -0.0190     0.2070 ca         1 010      -0.104000
      6 C4          -1.6160    -1.2290     0.0840 ca         1 010      -0.114500
      7 C5          -0.2300    -1.2180    -0.1570 ca         1 010      -0.089500
      8 C6           0.4610     0.0050    -0.2760 ca         1 010      -0.088300
      9 H            2.2160     0.9070    -1.1360 h1         1 010       0.023200
     10 HA           2.2310    -0.8630    -1.1400 h1         1 010       0.023200
     11 HO           3.6400     0.0300     0.4570 ho         1 010       0.440000
     12 H2          -2.1790     2.1410     0.1860 ha         1 010       0.112000
     13 H3          -3.3910    -0.0290     0.3940 ha         1 010       0.111000
     14 H4          -2.1430    -2.1760     0.1750 ha         1 010       0.112000
     15 H5           0.3070    -2.1590    -0.2500 ha         1 010       0.112500
     16 H1           0.2710     2.1660    -0.2390 ha         1 010       0.112500
@<TRIPOS>BOND
     1     1     2 1   
     2     1     8 1   
     3     1     9 1   
     4     1    10 1   
     5     2    11 1   
     6     3     4 ar  
     7     3     8 ar  
     8     3    16 1   
     9     4     5 ar  
    10     4    12 1   
    11     5     6 ar  
    12     5    13 1   
    13     6     7 ar  
    14     6    14 1   
    15     7     8 ar  
    16     7    15 1   
@<TRIPOS>SUBSTRUCTURE
     1 010         1 TEMP              0 ****  ****    0 ROOT
