@<TRIPOS>MOLECULE
011
   24    23     1     0     0
SMALL
bcc


@<TRIPOS>ATOM
      1 C5          -1.6190     0.3930    -0.0340 c3         1 011      -0.076400
      2 C4          -0.3950    -0.5160    -0.0510 c3         1 011      -0.078400
      3 O            3.5450     1.2620     0.0130 o          1 011      -0.849300
      4 C6          -2.9350    -0.3740    -0.0320 c3         1 011      -0.078400
      5 C3           0.9230     0.2490    -0.0290 c3         1 011      -0.054400
      6 C7          -4.1520     0.5390    -0.0200 c3         1 011       0.145800
      7 C2           2.1340    -0.6700    -0.0430 c3         1 011      -0.204400
      8 N           -5.3870    -0.2330    -0.0010 n8         1 011      -0.886800
      9 C1           3.5120     0.0150    -0.0080 c          1 011       0.927600
     10 HAA         -1.5730     1.0420     0.8480 hc         1 011       0.033200
     11 HAAA        -1.5860     1.0600    -0.9020 hc         1 011       0.033200
     12 HAB         -0.4390    -1.1950     0.8080 hc         1 011       0.024700
     13 HABA        -0.4330    -1.1550    -0.9410 hc         1 011       0.024700
     14 HAU         -2.9860    -1.0270    -0.9090 hc         1 011       0.040700
     15 HAUA        -2.9690    -1.0320     0.8450 hc         1 011       0.040700
     16 HAV          0.9610     0.9280    -0.8860 hc         1 011       0.037200
     17 HAVA         0.9530     0.8870     0.8600 hc         1 011       0.037200
     18 HAW         -4.0610     1.2400     0.8230 h1         1 011       0.024200
     19 HAWA        -4.1450     1.1510    -0.9270 h1         1 011       0.024200
     20 HAX          2.0770    -1.3630     0.8050 hc         1 011       0.014700
     21 HAXA         2.0960    -1.3130    -0.9310 hc         1 011       0.014700
     22 HNBA        -5.4620    -0.7110     0.8890 hn         1 011       0.327800
     23 H2          -6.1800     0.3950    -0.0370 hn         1 011       0.327800
     24 OXT          4.5010    -0.7490    -0.0060 o          1 011      -0.849300
@<TRIPOS>BOND
     1     1     2 1   
     2     1     4 1   
     3     1    10 1   
     4     1    11 1   
     5     2     5 1   
     6     2    12 1   
     7     2    13 1   
     8     3     9 1   
     9     4     6 1   
    10     4    14 1   
    11     4    15 1   
    12     5     7 1   
    13     5    16 1   
    14     5    17 1   
    15     6     8 1   
    16     6    18 1   
    17     6    19 1   
    18     7     9 1   
    19     7    20 1   
    20     7    21 1   
    21     8    22 1   
    22     8    23 1   
    23     9    24 1   
@<TRIPOS>SUBSTRUCTURE
     1 011         1 TEMP              0 ****  ****    0 ROOT
