@<TRIPOS>MOLECULE
012
   79    82     1     0     0
SMALL
bcc


@<TRIPOS>ATOM
      1 C           -2.1740    -1.4130    -0.3950 c          1 012       0.639100
      2 O           -2.5200    -1.2070     0.7560 o          1 012      -0.583100
      3 N           -0.9020    -1.5890    -0.7850 ns         1 012      -0.554900
      4 CA           0.1930    -1.7840     0.1400 c3         1 012       0.077700
      5 CB           0.4590    -3.2900     0.3420 c3         1 012      -0.053100
      6 CG          -0.8010    -4.0350     0.6780 ca         1 012      -0.086300
      7 CD1         -1.5730    -4.6160    -0.3250 ca         1 012      -0.120500
      8 CD2         -1.2640    -4.0920     1.9890 ca         1 012      -0.120500
      9 CE1         -2.7860    -5.2260    -0.0290 ca         1 012      -0.127500
     10 CE2         -2.4730    -4.7040     2.2920 ca         1 012      -0.127500
     11 CZ          -3.2430    -5.2660     1.2820 ca         1 012      -0.122000
     12 C1           1.4170    -1.0000    -0.3470 c3         1 012       0.128100
     13 OG           1.7910    -1.3640    -1.6610 oh         1 012      -0.595800
     14 C2           2.5830    -1.0870     0.6270 c3         1 012       0.127800
     15 N2           3.6180    -0.1340     0.2840 n7         1 012      -0.796200
     16 C20          4.7590    -0.2160     1.1780 c3         1 012       0.203100
     17 C21          5.8330     0.7570     0.7720 ca         1 012      -0.052300
     18 C22          5.5850     2.1280     0.8010 ca         1 012      -0.152000
     19 C23          6.5960     3.0000     0.4290 ca         1 012      -0.091000
     20 C24          7.8380     2.5380     0.0190 ca         1 012      -0.201000
     21 C25          8.1020     1.1590    -0.0420 ca         1 012       0.189600
     22 C26          7.0700     0.2860     0.3560 ca         1 012      -0.202000
     23 N27          9.3100     0.6770    -0.4800 nh         1 012      -0.687000
     24 C28         10.4110     1.5930    -0.6630 c3         1 012       0.215100
     25 C29          9.6060    -0.7290    -0.3380 c3         1 012       0.215100
     26 C30         -3.2010    -1.4590    -1.5270 c5         1 012      -0.006300
     27 N31         -4.4170    -2.0980    -1.0860 ns         1 012      -0.536900
     28 C32         -5.3040    -1.1640    -0.6090 c          1 012       0.811500
     29 O33         -6.3080    -1.4000     0.0400 o          1 012      -0.641500
     30 N34         -4.8770     0.0580    -1.0260 n          1 012      -0.486800
     31 C35         -3.7120    -0.0490    -1.8700 c5         1 012       0.101000
     32 C36         -5.6690     1.2500    -0.9650 c3         1 012       0.164300
     33 C41         -4.9780     2.3910    -0.2560 ca         1 012      -0.072300
     34 C42         -5.2890     3.6930    -0.6130 ca         1 012      -0.164000
     35 C43         -4.7090     4.7770     0.0500 ca         1 012       0.136100
     36 C44         -3.7970     4.5460     1.0770 ca         1 012      -0.215000
     37 C45         -3.4840     3.2360     1.4220 ca         1 012      -0.094000
     38 C46         -4.0640     2.1590     0.7710 ca         1 012      -0.145000
     39 O47         -5.0850     5.9990    -0.3730 os         1 012      -0.321900
     40 C48         -4.5070     7.1330     0.2420 c3         1 012       0.126700
     41 HN          -0.7260    -1.8220    -1.7510 hn         1 012       0.318500
     42 HA          -0.1100    -1.3530     1.0960 h1         1 012       0.092700
     43 HB           0.9030    -3.7150    -0.5630 hc         1 012       0.048700
     44 HBA          1.1920    -3.4130     1.1420 hc         1 012       0.048700
     45 HD1         -1.2270    -4.5900    -1.3520 ha         1 012       0.126000
     46 HD2         -0.6770    -3.6450     2.7840 ha         1 012       0.126000
     47 HE1         -3.3710    -5.6740    -0.8230 ha         1 012       0.134000
     48 HE2         -2.8160    -4.7390     3.3180 ha         1 012       0.134000
     49 HZ          -4.1870    -5.7400     1.5160 ha         1 012       0.136000
     50 H1           1.1150     0.0500    -0.4120 h1         1 012       0.102700
     51 HOG          2.2200    -2.2270    -1.6410 ho         1 012       0.397000
     52 H2           2.2150    -0.8560     1.6320 h1         1 012       0.034200
     53 H2A          2.9620    -2.1230     0.6700 h1         1 012       0.034200
     54 HN2          3.9360    -0.3150    -0.6610 hn         1 012       0.365800
     55 H20          4.4120     0.0230     2.1890 h1         1 012       0.034200
     56 H20A         5.1840    -1.2310     1.2330 h1         1 012       0.034200
     57 H22          4.6220     2.5030     1.1230 ha         1 012       0.141000
     58 H23          6.4240     4.0690     0.4630 ha         1 012       0.127000
     59 H24          8.5960     3.2600    -0.2520 ha         1 012       0.129000
     60 H26          7.2270    -0.7840     0.3440 ha         1 012       0.124000
     61 H28         10.7060     2.0990     0.2630 h1         1 012       0.033867
     62 H28A        11.2740     1.0470    -1.0360 h1         1 012       0.033867
     63 H28B        10.1740     2.3610    -1.4020 h1         1 012       0.033867
     64 H29          8.8910    -1.3460    -0.8860 h1         1 012       0.033867
     65 H29A        10.5890    -0.9330    -0.7550 h1         1 012       0.033867
     66 H29B         9.6070    -1.0650     0.7060 h1         1 012       0.033867
     67 H30         -2.7890    -1.9490    -2.4100 h1         1 012       0.076700
     68 HN31        -4.3610    -2.9820    -0.6010 hn         1 012       0.328500
     69 H35         -2.9750     0.7280    -1.6580 h1         1 012       0.058200
     70 H35A        -3.9790     0.0220    -2.9290 h1         1 012       0.058200
     71 H36         -5.9560     1.5680    -1.9740 h1         1 012       0.063700
     72 H36A        -6.5960     1.0060    -0.4420 h1         1 012       0.063700
     73 H42         -5.9890     3.8830    -1.4200 ha         1 012       0.140000
     74 H44         -3.3240     5.3590     1.6090 ha         1 012       0.133000
     75 H45         -2.7710     3.0620     2.2180 ha         1 012       0.130000
     76 H46         -3.7980     1.1470     1.0470 ha         1 012       0.160000
     77 H48         -4.7390     7.1840     1.3090 h1         1 012       0.039700
     78 H48A        -3.4210     7.1560     0.1180 h1         1 012       0.039700
     79 H48B        -4.9340     8.0030    -0.2500 h1         1 012       0.039700
@<TRIPOS>BOND
     1     1     2 2   
     2     1     3 1   
     3     1    26 1   
     4     3     4 1   
     5     3    41 1   
     6     4     5 1   
     7     4    12 1   
     8     4    42 1   
     9     5     6 1   
    10     5    43 1   
    11     5    44 1   
    12     6     7 ar  
    13     6     8 ar  
    14     7     9 ar  
    15     7    45 1   
    16     8    10 ar  
    17     8    46 1   
    18     9    11 ar  
    19     9    47 1   
    20    10    11 ar  
    21    10    48 1   
    22    11    49 1   
    23    12    13 1   
    24    12    14 1   
    25    12    50 1   
    26    13    51 1   
    27    14    15 1   
    28    14    52 1   
    29    14    53 1   
    30    15    16 1   
    31    15    54 1   
    32    16    17 1   
    33    16    55 1   
    34    16    56 1   
    35    17    18 ar  
    36    17    22 ar  
    37    18    19 ar  
    38    18    57 1   
    39    19    20 ar  
    40    19    58 1   
    41    20    21 ar  
    42    20    59 1   
    43    21    22 ar  
    44    21    23 1   
    45    22    60 1   
    46    23    24 1   
    47    23    25 1   
    48    24    61 1   
    49    24    62 1   
    50    24    63 1   
    51    25    64 1   
    52    25    65 1   
    53    25    66 1   
    54    26    27 1   
    55    26    31 1   
    56    26    67 1   
    57    27    28 1   
    58    27    68 1   
    59    28    29 2   
    60    28    30 1   
    61    30    31 1   
    62    30    32 1   
    63    31    69 1   
    64    31    70 1   
    65    32    33 1   
    66    32    71 1   
    67    32    72 1   
    68    33    34 ar  
    69    33    38 ar  
    70    34    35 ar  
    71    34    73 1   
    72    35    36 ar  
    73    35    39 1   
    74    36    37 ar  
    75    36    74 1   
    76    37    38 ar  
    77    37    75 1   
    78    38    76 1   
    79    39    40 1   
    80    40    77 1   
    81    40    78 1   
    82    40    79 1   
@<TRIPOS>SUBSTRUCTURE
     1 012         1 TEMP              0 ****  ****    0 ROOT
