@<TRIPOS>MOLECULE
012
   79    82     1     0     0
SMALL
No Charge or Current Charge


@<TRIPOS>ATOM
      1 C           -2.7780    -1.8230     0.0320 c          1 012       0.572100
      2 O           -3.0850    -1.6420     1.2040 o          1 012      -0.583100
      3 N           -1.4950    -2.1210    -0.3800 ns         1 012      -0.487900
      4 CA          -0.3240    -2.2170     0.5050 c3         1 012       0.077700
      5 CB           0.1940    -3.6800     0.5560 c3         1 012      -0.053100
      6 CG          -0.8930    -4.6730     0.9570 ca         1 012      -0.086300
      7 CD1         -1.5130    -5.4860    -0.0130 ca         1 012      -0.102500
      8 CD2         -1.2960    -4.7750     2.3030 ca         1 012      -0.102500
      9 CE1         -2.5240    -6.3890     0.3590 ca         1 012      -0.109500
     10 CE2         -2.3070    -5.6790     2.6750 ca         1 012      -0.109500
     11 CZ          -2.9210    -6.4860     1.7030 ca         1 012      -0.104000
     12 C1           0.7410    -1.1500     0.1020 c3         1 012       0.151300
     13 OG           1.2010    -1.3740    -1.2510 oh         1 012      -0.658000
     14 C2           1.9510    -1.0730     1.0800 c3         1 012       0.127800
     15 N2           2.8200     0.0790     0.7580 n7         1 012      -0.851400
     16 C20          4.0610     0.1800     1.5460 c3         1 012       0.203100
     17 C21          4.8820     1.3850     1.1010 ca         1 012      -0.052300
     18 C22          4.5810     2.6690     1.5930 ca         1 012      -0.134000
     19 C23          5.3390     3.7780     1.1860 ca         1 012      -0.073000
     20 C24          6.4040     3.6070     0.2850 ca         1 012      -0.183000
     21 C25          6.7230     2.3290    -0.2220 ca         1 012       0.328000
     22 C26          5.9500     1.2240     0.1950 ca         1 012      -0.184000
     23 N27          7.8000     2.1580    -1.1320 nh         1 012      -0.825400
     24 C28          8.9690     3.0690    -1.1260 c3         1 012       0.215100
     25 C29          7.8130     1.0530    -2.1210 c3         1 012       0.215100
     26 C30         -3.7140    -1.7890    -1.2180 c5         1 012      -0.006300
     27 N31         -5.1020    -1.5860    -0.7370 ns         1 012      -0.469900
     28 C32         -5.5250    -0.3080    -0.9040 c          1 012       0.602000
     29 O33         -6.5700     0.1460    -0.4680 o          1 012      -0.566000
     30 N34         -4.5740     0.3750    -1.6350 n          1 012      -0.419800
     31 C35         -3.4400    -0.4720    -2.0350 c5         1 012       0.101000
     32 C36         -4.6630     1.8280    -1.8680 c3         1 012       0.164300
     33 C41         -3.8370     2.6270    -0.8650 ca         1 012      -0.072300
     34 C42         -2.4730     2.8940    -1.1120 ca         1 012      -0.146000
     35 C43         -1.6970     3.6010    -0.1770 ca         1 012       0.136100
     36 C44         -2.2920     4.0570     1.0200 ca         1 012      -0.197000
     37 C45         -3.6530     3.7960     1.2700 ca         1 012      -0.076000
     38 C46         -4.4210     3.0810     0.3330 ca         1 012      -0.127000
     39 O47         -0.3640     3.8180    -0.4740 os         1 012      -0.345100
     40 C48          0.5340     4.4740     0.4440 c3         1 012       0.149900
     41 HN          -1.3460    -2.2470    -1.3740 hn         1 012       0.318500
     42 HA          -0.6470    -1.9620     1.5230 h1         1 012       0.092700
     43 HB           0.6090    -3.9560    -0.4210 hc         1 012       0.048700
     44 HBA          1.0230    -3.7500     1.2710 hc         1 012       0.048700
     45 HD1         -1.2150    -5.4150    -1.0570 ha         1 012       0.108000
     46 HD2         -0.8290    -4.1500     3.0610 ha         1 012       0.108000
     47 HE1         -3.0000    -7.0130    -0.3950 ha         1 012       0.116000
     48 HE2         -2.6140    -5.7520     3.7160 ha         1 012       0.116000
     49 HZ          -3.7040    -7.1860     1.9910 ha         1 012       0.118000
     50 H1           0.2360    -0.1750     0.1560 h1         1 012       0.102700
     51 HOG          1.7330    -2.1990    -1.2450 ho         1 012       0.436000
     52 H2           1.5740    -0.9840     2.1090 h1         1 012       0.034200
     53 H2A          2.5240    -2.0080     1.0180 h1         1 012       0.034200
     54 HN2          3.0790     0.0100    -0.2340 hn         1 012       0.421000
     55 H20          3.8270     0.2810     2.6150 h1         1 012       0.034200
     56 H20A         4.6640    -0.7310     1.4290 h1         1 012       0.034200
     57 H22          3.7550     2.8060     2.2890 ha         1 012       0.123000
     58 H23          5.1010     4.7700     1.5670 ha         1 012       0.109000
     59 H24          6.9720     4.4780    -0.0260 ha         1 012       0.111000
     60 H26          6.1830     0.2290    -0.1730 ha         1 012       0.106000
     61 H28          9.2090     3.3850    -0.1010 h1         1 012       0.033867
     62 H28A         9.8580     2.5660    -1.5340 h1         1 012       0.033867
     63 H28B         8.7640     3.9620    -1.7330 h1         1 012       0.033867
     64 H29          6.7950     0.8460    -2.4830 h1         1 012       0.033867
     65 H29A         8.4260     1.3170    -2.9930 h1         1 012       0.033867
     66 H29B         8.2220     0.1370    -1.6710 h1         1 012       0.033867
     67 H30         -3.5800    -2.7020    -1.8140 h1         1 012       0.076700
     68 HN31        -5.6420    -2.2140    -0.1530 hn         1 012       0.328500
     69 H35         -2.4730    -0.0080    -1.7920 h1         1 012       0.058200
     70 H35A        -3.4700    -0.6650    -3.1170 h1         1 012       0.058200
     71 H36         -4.3070     2.0430    -2.8840 h1         1 012       0.063700
     72 H36A        -5.7130     2.1500    -1.8210 h1         1 012       0.063700
     73 H42         -2.0090     2.5440    -2.0310 ha         1 012       0.122000
     74 H44         -1.7210     4.6080     1.7620 ha         1 012       0.115000
     75 H45         -4.1130     4.1440     2.1930 ha         1 012       0.112000
     76 H46         -5.4710     2.8740     0.5410 ha         1 012       0.142000
     77 H48          0.1950     5.4990     0.6560 h1         1 012       0.039700
     78 H48A         0.5990     3.9180     1.3890 h1         1 012       0.039700
     79 H48B         1.5440     4.5320     0.0140 h1         1 012       0.039700
@<TRIPOS>BOND
     1     1     2 2   
     2     1     3 1   
     3     1    26 1   
     4     3     4 1   
     5     3    41 1   
     6     4     5 1   
     7     4    12 1   
     8     4    42 1   
     9     5     6 1   
    10     5    43 1   
    11     5    44 1   
    12     6     7 ar  
    13     6     8 ar  
    14     7     9 ar  
    15     7    45 1   
    16     8    10 ar  
    17     8    46 1   
    18     9    11 ar  
    19     9    47 1   
    20    10    11 ar  
    21    10    48 1   
    22    11    49 1   
    23    12    13 1   
    24    12    14 1   
    25    12    50 1   
    26    13    51 1   
    27    14    15 1   
    28    14    52 1   
    29    14    53 1   
    30    15    16 1   
    31    15    54 1   
    32    16    17 1   
    33    16    55 1   
    34    16    56 1   
    35    17    18 ar  
    36    17    22 ar  
    37    18    19 ar  
    38    18    57 1   
    39    19    20 ar  
    40    19    58 1   
    41    20    21 ar  
    42    20    59 1   
    43    21    22 ar  
    44    21    23 1   
    45    22    60 1   
    46    23    24 1   
    47    23    25 1   
    48    24    61 1   
    49    24    62 1   
    50    24    63 1   
    51    25    64 1   
    52    25    65 1   
    53    25    66 1   
    54    26    27 1   
    55    26    31 1   
    56    26    67 1   
    57    27    28 1   
    58    27    68 1   
    59    28    29 2   
    60    28    30 1   
    61    30    31 1   
    62    30    32 1   
    63    31    69 1   
    64    31    70 1   
    65    32    33 1   
    66    32    71 1   
    67    32    72 1   
    68    33    34 ar  
    69    33    38 ar  
    70    34    35 ar  
    71    34    73 1   
    72    35    36 ar  
    73    35    39 1   
    74    36    37 ar  
    75    36    74 1   
    76    37    38 ar  
    77    37    75 1   
    78    38    76 1   
    79    39    40 1   
    80    40    77 1   
    81    40    78 1   
    82    40    79 1   
@<TRIPOS>SUBSTRUCTURE
     1 012         1 TEMP              0 ****  ****    0 ROOT
