@<TRIPOS>MOLECULE
013
   14    14     1     0     0
SMALL
bcc


@<TRIPOS>ATOM
      1 C1           1.8200     1.3250     0.4550 cc         1 013       0.285200
      2 C2           0.8720     0.3670     0.2760 cd         1 013      -0.096700
      3 S3           1.5750    -0.9660    -0.5530 ss         1 013      -0.140300
      4 C4           3.0780    -0.1320    -0.5840 cd         1 013       0.353300
      5 N5           3.0640     1.0360    -0.0300 nc         1 013      -0.650000
      6 C6          -0.5480     0.3530     0.7280 c3         1 013       0.241700
      7 O7          -1.3330    -0.1240    -0.3390 os         1 013      -0.522900
      8 C10         -2.7020    -0.2720    -0.1080 c          1 013       0.504100
      9 O24         -3.1270     0.0660     1.0030 o          1 013      -0.553500
     10 H1           1.6400     2.2720     0.9460 h4         1 013       0.032100
     11 H4           3.9470    -0.5710    -1.0520 h5         1 013       0.030100
     12 H61         -0.6430    -0.2880     1.6110 h1         1 013       0.034200
     13 H62A        -0.8240     1.3670     1.0350 h1         1 013       0.034200
     14 OXT         -3.2970    -0.7320    -1.0850 o          1 013      -0.553500
@<TRIPOS>BOND
     1     1     2 2   
     2     1     5 1   
     3     1    10 1   
     4     2     3 1   
     5     2     6 1   
     6     3     4 1   
     7     4     5 2   
     8     4    11 1   
     9     6     7 1   
    10     6    12 1   
    11     6    13 1   
    12     7     8 1   
    13     8     9 1   
    14     8    14 1   
@<TRIPOS>SUBSTRUCTURE
     1 013         1 TEMP              0 ****  ****    0 ROOT
