@<TRIPOS>MOLECULE
013
   14    14     1     0     0
SMALL
No Charge or Current Charge


@<TRIPOS>ATOM
      1 C1           1.6010     1.3650     0.0530 cc         1 013       0.219900
      2 C2           0.9250     0.2060     0.3380 cd         1 013      -0.176300
      3 S3           1.9420    -1.1980     0.0740 ss         1 013       0.004600
      4 C4           3.2150    -0.0800    -0.4080 cd         1 013       0.353300
      5 N5           2.8990     1.2120    -0.3690 nc         1 013      -0.650000
      6 C6          -0.4910     0.0690     0.8220 c3         1 013       0.264900
      7 O7          -1.3660     0.1580    -0.3150 os         1 013      -0.546100
      8 C10         -2.7100     0.0590    -0.1120 c          1 013       0.824100
      9 O24         -3.1470    -0.1000     1.0170 o          1 013      -0.713500
     10 H1           1.2040     2.3680     0.1330 h4         1 013       0.032100
     11 H4           4.1800    -0.4680    -0.7080 h5         1 013       0.030100
     12 H61         -0.6080    -0.8970     1.3320 h1         1 013       0.034200
     13 H62A        -0.7020     0.8700     1.5430 h1         1 013       0.034200
     14 OXT         -3.4190     0.1390    -1.0980 o          1 013      -0.713500
@<TRIPOS>BOND
     1     1     2 2   
     2     1     5 1   
     3     1    10 1   
     4     2     3 1   
     5     2     6 1   
     6     3     4 1   
     7     4     5 2   
     8     4    11 1   
     9     6     7 1   
    10     6    12 1   
    11     6    13 1   
    12     7     8 1   
    13     8     9 1   
    14     8    14 1   
@<TRIPOS>SUBSTRUCTURE
     1 013         1 TEMP              0 ****  ****    0 ROOT
