@<TRIPOS>MOLECULE
014
   24    26     1     0     0
SMALL
No Charge or Current Charge


@<TRIPOS>ATOM
      1 F           -5.0390     1.4630     0.0370 f          1 014      -0.174000
      2 Cl          -5.2170    -1.5490    -0.0180 cl         1 014      -0.195000
      3 N1           2.7060     1.7470     0.0210 nc         1 014      -0.611800
      4 O1           6.4470    -0.1330    -0.0230 o          1 014      -0.715500
      5 C2           4.1320    -0.0190    -0.0150 cd         1 014      -0.222600
      6 N2           2.0210     0.5290     0.0010 na         1 014       0.099000
      7 O2           5.3630    -1.9890    -0.0550 o          1 014      -0.715500
      8 C3           3.9750     1.3760     0.0110 cd         1 014       0.307900
      9 N3          -0.1710     1.4950     0.0240 na         1 014      -0.309600
     10 C4           2.8790    -0.5740    -0.0220 cc         1 014      -0.112000
     11 N4          -0.0150    -0.8410    -0.0190 nc         1 014      -0.610100
     12 C5           0.6180     0.3490     0.0010 cd         1 014       0.570300
     13 C6          -1.4320     0.9630     0.0180 ca         1 014      -0.066200
     14 C7          -2.6620     1.6320     0.0340 ca         1 014      -0.147000
     15 C8          -3.8340     0.8490     0.0220 ca         1 014       0.169000
     16 C10         -3.7520    -0.5660    -0.0040 ca         1 014       0.048000
     17 C11         -2.4930    -1.2040    -0.0190 ca         1 014      -0.028000
     18 C12         -1.3350    -0.4110    -0.0080 ca         1 014       0.086400
     19 H3           4.7490     2.1340     0.0230 h4         1 014       0.044100
     20 H4           2.5440    -1.6050    -0.0400 h4         1 014       0.179000
     21 H7          -2.7170     2.7180     0.0540 ha         1 014       0.134000
     22 H11         -2.4190    -2.2880    -0.0390 ha         1 014       0.144000
     23 HN3          0.1460     2.4540     0.0410 hn         1 014       0.385000
     24 C1           5.4040    -0.7680    -0.0320 c          1 014       0.740600
@<TRIPOS>BOND
     1     1    15 1   
     2     2    16 1   
     3     3     6 1   
     4     3     8 2   
     5     4    24 1   
     6     5     8 1   
     7     5    10 2   
     8     5    24 1   
     9     6    10 1   
    10     6    12 1   
    11     7    24 1   
    12     8    19 1   
    13     9    12 1   
    14     9    13 1   
    15     9    23 1   
    16    10    20 1   
    17    11    12 2   
    18    11    18 1   
    19    13    14 ar  
    20    13    18 ar  
    21    14    15 ar  
    22    14    21 1   
    23    15    16 ar  
    24    16    17 ar  
    25    17    18 ar  
    26    17    22 1   
@<TRIPOS>SUBSTRUCTURE
     1 014         1 TEMP              0 ****  ****    0 ROOT
