@<TRIPOS>MOLECULE
014
   24    26     1     0     0
SMALL
abcg2


@<TRIPOS>ATOM
      1 F           -4.9820     1.4510     0.0400 f          1 014      -0.174000
      2 CL          -5.1990    -1.4170    -0.0150 cl         1 014      -0.195000
      3 N1           2.5890     1.6130     0.0170 nc         1 014      -0.611800
      4 O1           6.4720     0.0170    -0.0150 o          1 014      -0.715500
      5 C2           4.1400    -0.0350    -0.0170 cd         1 014      -0.222600
      6 N2           2.0010     0.4060    -0.0040 na         1 014       0.099000
      7 O2           5.4490    -1.9710    -0.0500 o          1 014      -0.715500
      8 C3           3.8750     1.3560     0.0100 cd         1 014       0.307900
      9 N3          -0.1440     1.4230     0.0220 na         1 014      -0.309600
     10 C4           2.8990    -0.6120    -0.0260 cc         1 014      -0.112000
     11 N4          -0.0320    -0.8060    -0.0210 nc         1 014      -0.610100
     12 C5           0.6270     0.3110    -0.0020 cd         1 014       0.570300
     13 C6          -1.4410     0.9860     0.0180 ca         1 014      -0.066200
     14 C7          -2.6520     1.6610     0.0350 ca         1 014      -0.147000
     15 C8          -3.7790     0.8690     0.0250 ca         1 014       0.169000
     16 C10         -3.7190    -0.5280    -0.0020 ca         1 014       0.048000
     17 C11         -2.5050    -1.1890    -0.0190 ca         1 014      -0.028000
     18 C12         -1.3500    -0.4160    -0.0090 ca         1 014       0.086400
     19 H3           4.5890     2.1650     0.0250 h4         1 014       0.044100
     20 H4           2.5860    -1.6430    -0.0450 h4         1 014       0.179000
     21 H7          -2.7270     2.7400     0.0560 ha         1 014       0.134000
     22 H11         -2.4600    -2.2690    -0.0400 ha         1 014       0.144000
     23 HN3          0.1880     2.3760     0.0390 hn         1 014       0.385000
     24 C1           5.4720    -0.7260    -0.0290 c          1 014       0.740600
@<TRIPOS>BOND
     1     1    15 1   
     2     2    16 1   
     3     3     6 1   
     4     3     8 2   
     5     4    24 1   
     6     5     8 1   
     7     5    10 2   
     8     5    24 1   
     9     6    10 1   
    10     6    12 1   
    11     7    24 1   
    12     8    19 1   
    13     9    12 1   
    14     9    13 1   
    15     9    23 1   
    16    10    20 1   
    17    11    12 2   
    18    11    18 1   
    19    13    14 ar  
    20    13    18 ar  
    21    14    15 ar  
    22    14    21 1   
    23    15    16 ar  
    24    16    17 ar  
    25    17    18 ar  
    26    17    22 1   
@<TRIPOS>SUBSTRUCTURE
     1 014         1 TEMP              0 ****  ****    0 ROOT
