@<TRIPOS>MOLECULE
015
   45    46     1     0     0
SMALL
abcg2


@<TRIPOS>ATOM
      1 N11         -2.2640    -1.1730    -1.0790 n8         1 015      -0.992200
      2 C12         -1.9620    -0.1140    -0.1330 c3         1 015       0.167500
      3 C13         -0.5540    -0.1800     0.4790 c3         1 015       0.145300
      4 C14          0.5350    -0.0620    -0.5880 c3         1 015      -0.116400
      5 C15          1.9520    -0.0610    -0.0140 c3         1 015       0.161500
      6 C26         -3.0250    -0.0900     0.9740 c3         1 015      -0.019100
      7 C28         -4.4060     0.1730     0.4490 ca         1 015      -0.062300
      8 C31         -5.2630    -0.8750     0.1210 ca         1 015      -0.099500
      9 C32         -6.5340    -0.6300    -0.3830 ca         1 015      -0.113500
     10 C33         -6.9680     0.6760    -0.5760 ca         1 015      -0.115000
     11 C34         -6.1230     1.7300    -0.2560 ca         1 015      -0.113500
     12 C35         -4.8550     1.4780     0.2530 ca         1 015      -0.099500
     13 O41         -0.4370    -1.3730     1.2220 oh         1 015      -0.696000
     14 C44          2.9830     0.2900    -1.0990 c3         1 015      -0.067100
     15 C45          4.3860     0.3290    -0.5650 ca         1 015      -0.091300
     16 C48          5.2440    -0.7580    -0.7090 ca         1 015      -0.110500
     17 C49          6.5270    -0.7310    -0.1740 ca         1 015      -0.105500
     18 C50          6.9690     0.3870     0.5200 ca         1 015      -0.107000
     19 C51          6.1210     1.4770     0.6730 ca         1 015      -0.105500
     20 C52          4.8420     1.4450     0.1350 ca         1 015      -0.110500
     21 N58          2.2030    -1.3440     0.6440 n8         1 015      -1.018200
     22 H11         -1.6530    -1.1080    -1.8840 hn         1 015       0.396000
     23 H12         -2.0250     0.8380    -0.6740 h1         1 015       0.052700
     24 H13         -0.4500     0.6960     1.1430 h1         1 015       0.030700
     25 H141         0.4490    -0.8860    -1.3070 hc         1 015       0.047700
     26 H142         0.3770     0.8620    -1.1500 hc         1 015       0.047700
     27 H15          2.0100     0.7080     0.7660 h1         1 015       0.064700
     28 H261        -3.0080    -1.0400     1.5140 hc         1 015       0.053700
     29 H262        -2.7570     0.6850     1.6980 hc         1 015       0.053700
     30 H31         -4.9330    -1.8960     0.2670 ha         1 015       0.108000
     31 H32         -7.1860    -1.4590    -0.6270 ha         1 015       0.107000
     32 H33         -7.9580     0.8710    -0.9670 ha         1 015       0.107000
     33 H34         -6.4520     2.7520    -0.3980 ha         1 015       0.107000
     34 H35         -4.2060     2.3090     0.5060 ha         1 015       0.108000
     35 HO4          0.5220    -1.5920     1.2300 ho         1 015       0.488000
     36 H441         2.9090    -0.4430    -1.9080 hc         1 015       0.054700
     37 H442         2.7190     1.2610    -1.5260 hc         1 015       0.054700
     38 H48          4.9100    -1.6350    -1.2520 ha         1 015       0.110500
     39 H49          7.1810    -1.5840    -0.3010 ha         1 015       0.115000
     40 H50          7.9670     0.4090     0.9370 ha         1 015       0.116000
     41 H51          6.4580     2.3540     1.2110 ha         1 015       0.115000
     42 H52          4.1870     2.3000     0.2590 ha         1 015       0.110500
     43 H58          2.3700    -2.0660    -0.0490 hn         1 015       0.410500
     44 H2          -2.0710    -2.0700    -0.6490 hn         1 015       0.396000
     45 H1           3.0340    -1.2990     1.2200 hn         1 015       0.410500
@<TRIPOS>BOND
     1     1     2 1   
     2     1    22 1   
     3     1    44 1   
     4     2     3 1   
     5     2     6 1   
     6     2    23 1   
     7     3     4 1   
     8     3    13 1   
     9     3    24 1   
    10     4     5 1   
    11     4    25 1   
    12     4    26 1   
    13     5    14 1   
    14     5    21 1   
    15     5    27 1   
    16     6     7 1   
    17     6    28 1   
    18     6    29 1   
    19     7     8 ar  
    20     7    12 ar  
    21     8     9 ar  
    22     8    30 1   
    23     9    10 ar  
    24     9    31 1   
    25    10    11 ar  
    26    10    32 1   
    27    11    12 ar  
    28    11    33 1   
    29    12    34 1   
    30    13    35 1   
    31    14    15 1   
    32    14    36 1   
    33    14    37 1   
    34    15    16 ar  
    35    15    20 ar  
    36    16    17 ar  
    37    16    38 1   
    38    17    18 ar  
    39    17    39 1   
    40    18    19 ar  
    41    18    40 1   
    42    19    20 ar  
    43    19    41 1   
    44    20    42 1   
    45    21    43 1   
    46    21    45 1   
@<TRIPOS>SUBSTRUCTURE
     1 015         1 TEMP              0 ****  ****    0 ROOT
