@<TRIPOS>MOLECULE
015
   45    46     1     0     0
SMALL
No Charge or Current Charge


@<TRIPOS>ATOM
      1 N11         -2.2870    -1.3600    -1.0310 n8         1 015      -0.992200
      2 C12         -2.0340    -0.1890    -0.1510 c3         1 015       0.167500
      3 C13         -0.5860    -0.2230     0.4550 c3         1 015       0.145300
      4 C14          0.5370    -0.0390    -0.5990 c3         1 015      -0.116400
      5 C15          1.9710    -0.0580    -0.0100 c3         1 015       0.161500
      6 C26         -3.1230    -0.0820     0.9520 c3         1 015      -0.019100
      7 C28         -4.5250     0.1950     0.4110 ca         1 015      -0.062300
      8 C31         -5.5200    -0.8020     0.4520 ca         1 015      -0.099500
      9 C32         -6.8120    -0.5380    -0.0360 ca         1 015      -0.113500
     10 C33         -7.1190     0.7260    -0.5660 ca         1 015      -0.115000
     11 C34         -6.1330     1.7270    -0.6070 ca         1 015      -0.113500
     12 C35         -4.8410     1.4630    -0.1190 ca         1 015      -0.099500
     13 O41         -0.3370    -1.4600     1.1310 oh         1 015      -0.696000
     14 C44          3.0450     0.3350    -1.0530 c3         1 015      -0.067100
     15 C45          4.4650     0.3480    -0.4880 ca         1 015      -0.091300
     16 C48          5.4160    -0.5990    -0.9200 ca         1 015      -0.110500
     17 C49          6.7210    -0.5820    -0.3980 ca         1 015      -0.105500
     18 C50          7.0860     0.3830     0.5560 ca         1 015      -0.107000
     19 C51          6.1440     1.3320     0.9870 ca         1 015      -0.105500
     20 C52          4.8380     1.3150     0.4660 ca         1 015      -0.110500
     21 N58          2.2770    -1.3880     0.5590 n8         1 015      -1.018200
     22 H11         -1.6210    -1.3320    -1.8080 hn         1 015       0.396000
     23 H12         -2.1120     0.7160    -0.7710 h1         1 015       0.052700
     24 H13         -0.4980     0.6080     1.1690 h1         1 015       0.030700
     25 H141         0.4570    -0.8090    -1.3760 hc         1 015       0.047700
     26 H142         0.3780     0.9240    -1.1010 hc         1 015       0.047700
     27 H15          2.0040     0.6770     0.8090 h1         1 015       0.064700
     28 H261        -3.1190    -0.9970     1.5560 hc         1 015       0.053700
     29 H262        -2.8460     0.7270     1.6390 hc         1 015       0.053700
     30 H31         -5.2920    -1.7850     0.8590 ha         1 015       0.108000
     31 H32         -7.5740    -1.3130    -0.0030 ha         1 015       0.107000
     32 H33         -8.1190     0.9310    -0.9430 ha         1 015       0.107000
     33 H34         -6.3700     2.7070    -1.0150 ha         1 015       0.107000
     34 H35         -4.0860     2.2450    -0.1520 ha         1 015       0.108000
     35 HO4          0.6560    -1.5670     1.0270 ho         1 015       0.488000
     36 H441         2.9800    -0.3450    -1.9110 hc         1 015       0.054700
     37 H442         2.8070     1.3310    -1.4440 hc         1 015       0.054700
     38 H48          5.1450    -1.3500    -1.6580 ha         1 015       0.110500
     39 H49          7.4500    -1.3160    -0.7350 ha         1 015       0.115000
     40 H50          8.0960     0.3960     0.9590 ha         1 015       0.116000
     41 H51          6.4250     2.0810     1.7240 ha         1 015       0.115000
     42 H52          4.1170     2.0560     0.8040 ha         1 015       0.110500
     43 H58          2.5110    -2.0220    -0.2150 hn         1 015       0.410500
     44 H2          -1.9850    -2.1870    -0.5030 hn         1 015       0.396000
     45 H1           3.1780    -1.3160     1.0510 hn         1 015       0.410500
@<TRIPOS>BOND
     1     1     2 1   
     2     1    22 1   
     3     1    44 1   
     4     2     3 1   
     5     2     6 1   
     6     2    23 1   
     7     3     4 1   
     8     3    13 1   
     9     3    24 1   
    10     4     5 1   
    11     4    25 1   
    12     4    26 1   
    13     5    14 1   
    14     5    21 1   
    15     5    27 1   
    16     6     7 1   
    17     6    28 1   
    18     6    29 1   
    19     7     8 ar  
    20     7    12 ar  
    21     8     9 ar  
    22     8    30 1   
    23     9    10 ar  
    24     9    31 1   
    25    10    11 ar  
    26    10    32 1   
    27    11    12 ar  
    28    11    33 1   
    29    12    34 1   
    30    13    35 1   
    31    14    15 1   
    32    14    36 1   
    33    14    37 1   
    34    15    16 ar  
    35    15    20 ar  
    36    16    17 ar  
    37    16    38 1   
    38    17    18 ar  
    39    17    39 1   
    40    18    19 ar  
    41    18    40 1   
    42    19    20 ar  
    43    19    41 1   
    44    20    42 1   
    45    21    43 1   
    46    21    45 1   
@<TRIPOS>SUBSTRUCTURE
     1 015         1 TEMP              0 ****  ****    0 ROOT
