@<TRIPOS>MOLECULE
016
   86    90     1     0     0
SMALL
abcg2


@<TRIPOS>ATOM
      1 N30          3.5360     0.0150     0.7170 ns         1 016      -0.479900
      2 O30          4.9380     1.5910     2.3710 oh         1 016      -0.656000
      3 C31          4.5980     0.8010     0.1580 c5         1 016       0.163000
      4 C32          4.1200     2.0870    -0.4680 ca         1 016      -0.109300
      5 C33          2.9490     2.3260    -1.1650 ca         1 016      -0.077000
      6 C34          2.7170     3.6100    -1.6520 ca         1 016      -0.117000
      7 C35          5.6390     1.2890     1.1880 c5         1 016       0.151300
      8 C36          5.0540     3.0940    -0.2520 ca         1 016      -0.076300
      9 C37          4.8250     4.3700    -0.7400 ca         1 016      -0.098000
     10 C38          3.6480     4.6210    -1.4420 ca         1 016      -0.107000
     11 C39          6.2180     2.5510     0.5290 c5         1 016      -0.068100
     12 C40         -1.5620    -0.2030    -0.3370 c          1 016       0.592100
     13 O40         -1.2670    -0.5210     0.8010 o          1 016      -0.580100
     14 C41         -1.6230     1.2460    -0.7850 c3         1 016       0.082600
     15 O41         -1.8160     2.0830     0.3310 os         1 016      -0.336100
     16 C42         -2.8130     3.0130     0.2190 ca         1 016       0.086100
     17 C43         -2.4630     4.3170    -0.1340 ca         1 016      -0.079300
     18 C44         -1.0350     4.6690    -0.4320 c3         1 016      -0.046300
     19 C45         -3.4750     5.2710    -0.2030 ca         1 016      -0.110000
     20 C46         -4.7930     4.9280     0.0590 ca         1 016      -0.107000
     21 C47         -5.1150     3.6230     0.4020 ca         1 016      -0.110000
     22 C48         -4.1310     2.6410     0.4870 ca         1 016      -0.079300
     23 C49         -4.4780     1.2300     0.8660 c3         1 016      -0.046300
     24 C50          0.7490    -3.8820     0.8710 c5         1 016       0.239000
     25 N50          1.2270    -2.6580     0.2480 n          1 016      -0.374800
     26 O50          3.9020    -1.9200    -0.4070 o          1 016      -0.592100
     27 S50          0.8890    -3.5840     2.6450 ss         1 016      -0.418000
     28 C51          2.4060    -2.5910     2.3650 c5         1 016       0.108000
     29 C52          3.6020    -3.5200     2.1790 c3         1 016      -0.084600
     30 C53          2.6230    -1.6710     3.5580 c3         1 016      -0.084600
     31 C54          2.0210    -1.7920     1.1000 c5         1 016       0.024700
     32 C55          3.2460    -1.2470     0.3670 c          1 016       0.621100
     33 C60         -1.6600    -2.5050    -1.1850 c3         1 016       0.082700
     34 N60         -1.8270    -1.0790    -1.3210 ns         1 016      -0.508900
     35 O60         -0.1300    -2.6660    -3.0710 oh         1 016      -0.647000
     36 C61         -2.7890    -3.2420    -1.9090 c3         1 016      -0.038100
     37 O61          1.1930    -1.1110    -1.3810 o          1 016      -0.616100
     38 C62         -4.1350    -2.8260    -1.3840 ca         1 016      -0.079300
     39 C63         -4.9100    -1.8890    -2.0610 ca         1 016      -0.105000
     40 C64         -6.1270    -1.4630    -1.5440 ca         1 016      -0.107000
     41 C65         -6.5860    -1.9710    -0.3370 ca         1 016      -0.109000
     42 C66         -5.8250    -2.9110     0.3450 ca         1 016      -0.107000
     43 C67         -4.6100    -3.3340    -0.1770 ca         1 016      -0.105000
     44 C68         -0.2700    -2.9420    -1.7090 c3         1 016       0.082300
     45 HN30         2.9080     0.4920     1.3450 hn         1 016       0.330500
     46 HO30         5.5750     1.8560     3.0410 ho         1 016       0.443000
     47 H31          5.1100     0.1900    -0.5900 h1         1 016       0.097700
     48 H33          2.2250     1.5340    -1.3220 ha         1 016       0.134000
     49 H34          1.8060     3.8240    -2.1960 ha         1 016       0.109000
     50 H35          6.4080     0.5290     1.3630 h1         1 016       0.046700
     51 H37          5.5410     5.1660    -0.5740 ha         1 016       0.113000
     52 H38          3.4520     5.6160    -1.8220 ha         1 016       0.110000
     53 H39          6.6330     3.2510     1.2580 hc         1 016       0.058700
     54 H39A         7.0360     2.2790    -0.1460 hc         1 016       0.058700
     55 H41         -0.6670     1.4830    -1.2690 h1         1 016       0.056200
     56 H41A        -2.4030     1.3860    -1.5400 h1         1 016       0.056200
     57 H44         -0.6510     4.1030    -1.2830 hc         1 016       0.047200
     58 H44A        -0.9400     5.7260    -0.6750 hc         1 016       0.047200
     59 H44B        -0.3760     4.4600     0.4110 hc         1 016       0.047200
     60 H45         -3.2240     6.2900    -0.4710 ha         1 016       0.113000
     61 H46         -5.5710     5.6780     0.0000 ha         1 016       0.114000
     62 H47         -6.1440     3.3560     0.6080 ha         1 016       0.113000
     63 H49         -3.8430     0.8570     1.6690 hc         1 016       0.047200
     64 H49A        -5.5130     1.1670     1.1970 hc         1 016       0.047200
     65 H49B        -4.3730     0.5360     0.0280 hc         1 016       0.047200
     66 H50         -0.2930    -4.0900     0.6420 h2         1 016       0.073200
     67 H50A         1.3470    -4.7420     0.5660 h2         1 016       0.073200
     68 H52          3.5060    -4.1610     1.3040 hc         1 016       0.053367
     69 H52A         4.5270    -2.9510     2.0760 hc         1 016       0.053367
     70 H52B         3.7020    -4.1570     3.0560 hc         1 016       0.053367
     71 H53          2.7960    -2.2520     4.4640 hc         1 016       0.053367
     72 H53A         3.5020    -1.0430     3.4010 hc         1 016       0.053367
     73 H53B         1.7660    -1.0200     3.7280 hc         1 016       0.053367
     74 H54          1.3880    -0.9550     1.4140 h1         1 016       0.094700
     75 H60         -1.7300    -2.7350    -0.1190 h1         1 016       0.086700
     76 HN60        -2.0630    -0.7210    -2.2340 hn         1 016       0.316500
     77 HO60         0.2200    -1.7680    -3.1460 ho         1 016       0.470000
     78 H61         -2.7240    -3.0490    -2.9820 hc         1 016       0.061700
     79 H61A        -2.6400    -4.3160    -1.7700 hc         1 016       0.061700
     80 H63         -4.5640    -1.4890    -3.0070 ha         1 016       0.108000
     81 H64         -6.7140    -0.7330    -2.0850 ha         1 016       0.114000
     82 H65         -7.5340    -1.6390     0.0680 ha         1 016       0.113000
     83 H66         -6.1770    -3.3180     1.2840 ha         1 016       0.114000
     84 H67         -4.0230    -4.0690     0.3620 ha         1 016       0.108000
     85 H68         -0.1700    -4.0230    -1.5760 h1         1 016       0.085700
     86 C69          0.7950    -2.1760    -0.9290 c          1 016       0.587100
@<TRIPOS>BOND
     1     1     3 1   
     2     1    32 1   
     3     1    45 1   
     4     2     7 1   
     5     2    46 1   
     6     3     4 1   
     7     3     7 1   
     8     3    47 1   
     9     4     5 ar  
    10     4     8 ar  
    11     5     6 ar  
    12     5    48 1   
    13     6    10 ar  
    14     6    49 1   
    15     7    11 1   
    16     7    50 1   
    17     8     9 ar  
    18     8    11 1   
    19     9    10 ar  
    20     9    51 1   
    21    10    52 1   
    22    11    53 1   
    23    11    54 1   
    24    12    13 2   
    25    12    14 1   
    26    12    34 1   
    27    14    15 1   
    28    14    55 1   
    29    14    56 1   
    30    15    16 1   
    31    16    17 ar  
    32    16    22 ar  
    33    17    18 1   
    34    17    19 ar  
    35    18    57 1   
    36    18    58 1   
    37    18    59 1   
    38    19    20 ar  
    39    19    60 1   
    40    20    21 ar  
    41    20    61 1   
    42    21    22 ar  
    43    21    62 1   
    44    22    23 1   
    45    23    63 1   
    46    23    64 1   
    47    23    65 1   
    48    24    25 1   
    49    24    27 1   
    50    24    66 1   
    51    24    67 1   
    52    25    31 1   
    53    25    86 1   
    54    26    32 2   
    55    27    28 1   
    56    28    29 1   
    57    28    30 1   
    58    28    31 1   
    59    29    68 1   
    60    29    69 1   
    61    29    70 1   
    62    30    71 1   
    63    30    72 1   
    64    30    73 1   
    65    31    32 1   
    66    31    74 1   
    67    33    34 1   
    68    33    36 1   
    69    33    44 1   
    70    33    75 1   
    71    34    76 1   
    72    35    44 1   
    73    35    77 1   
    74    36    38 1   
    75    36    78 1   
    76    36    79 1   
    77    37    86 2   
    78    38    39 ar  
    79    38    43 ar  
    80    39    40 ar  
    81    39    80 1   
    82    40    41 ar  
    83    40    81 1   
    84    41    42 ar  
    85    41    82 1   
    86    42    43 ar  
    87    42    83 1   
    88    43    84 1   
    89    44    85 1   
    90    44    86 1   
@<TRIPOS>SUBSTRUCTURE
     1 016         1 TEMP              0 ****  ****    0 ROOT
