@<TRIPOS>MOLECULE
016
   86    90     1     0     0
SMALL
No Charge or Current Charge


@<TRIPOS>ATOM
      1 N30          3.2640     0.4560     0.8640 ns         1 016      -0.479900
      2 O30          3.8480     2.2290     2.7180 oh         1 016      -0.656000
      3 C31          4.1870     1.4500     0.3130 c5         1 016       0.163000
      4 C32          3.5150     2.5540    -0.4650 ca         1 016      -0.109300
      5 C33          2.5810     2.4070    -1.5050 ca         1 016      -0.077000
      6 C34          2.0460     3.5610    -2.1090 ca         1 016      -0.117000
      7 C35          4.7360     2.2580     1.5830 c5         1 016       0.151300
      8 C36          3.9120     3.8070    -0.0430 ca         1 016      -0.076300
      9 C37          3.3950     4.9680    -0.6380 ca         1 016      -0.098000
     10 C38          2.4530     4.8400    -1.6770 ca         1 016      -0.107000
     11 C39          4.9240     3.7410     1.0720 c5         1 016      -0.068100
     12 C40         -2.3460    -0.6310    -0.1530 c          1 016       0.592100
     13 O40         -1.9180    -1.0420     0.9190 o          1 016      -0.580100
     14 C41         -2.7440     0.8410    -0.4110 c3         1 016       0.082600
     15 O41         -2.3790     1.7020     0.6920 os         1 016      -0.336100
     16 C42         -2.0710     3.0260     0.4640 ca         1 016       0.086100
     17 C43         -0.7500     3.4570     0.7200 ca         1 016      -0.079300
     18 C44          0.3010     2.4780     1.2320 c3         1 016      -0.046300
     19 C45         -0.3980     4.7980     0.4810 ca         1 016      -0.110000
     20 C46         -1.3520     5.7040    -0.0040 ca         1 016      -0.107000
     21 C47         -2.6690     5.2800    -0.2440 ca         1 016      -0.110000
     22 C48         -3.0450     3.9420    -0.0090 ca         1 016      -0.079300
     23 C49         -4.4960     3.5340    -0.2460 c3         1 016      -0.046300
     24 C50          0.9130    -3.8260     0.5800 c5         1 016       0.239000
     25 N50          1.1530    -2.4650     0.0470 n          1 016      -0.374800
     26 O50          3.6850    -1.0460    -0.8250 o          1 016      -0.592100
     27 S50          1.3180    -3.7190     2.3760 ss         1 016      -0.418000
     28 C51          2.6430    -2.4920     2.0100 c5         1 016       0.108000
     29 C52          3.9110    -3.2600     1.5410 c3         1 016      -0.084600
     30 C53          2.9700    -1.7500     3.3300 c3         1 016      -0.084600
     31 C54          1.9740    -1.5620     0.9300 c5         1 016       0.024700
     32 C55          3.0770    -0.7350     0.1930 c          1 016       0.621100
     33 C60         -1.9430    -2.8370    -1.3210 c3         1 016       0.082700
     34 N60         -2.4580    -1.4590    -1.2550 ns         1 016      -0.508900
     35 O60         -0.5130    -2.4670    -3.3010 oh         1 016      -0.647000
     36 C61         -2.9350    -3.7670    -2.0630 c3         1 016      -0.038100
     37 O61          0.6410    -0.7920    -1.4370 o          1 016      -0.616100
     38 C62         -4.3170    -3.7840    -1.4170 ca         1 016      -0.079300
     39 C63         -5.3990    -3.1170    -2.0250 ca         1 016      -0.105000
     40 C64         -6.6680    -3.1270    -1.4210 ca         1 016      -0.107000
     41 C65         -6.8640    -3.8050    -0.2060 ca         1 016      -0.109000
     42 C66         -5.7890    -4.4730     0.4050 ca         1 016      -0.107000
     43 C67         -4.5200    -4.4630    -0.1990 ca         1 016      -0.105000
     44 C68         -0.4940    -2.8730    -1.9060 c3         1 016       0.082300
     45 HN30         2.7520     0.6240     1.7210 hn         1 016       0.330500
     46 HO30         4.2650     2.7750     3.4200 ho         1 016       0.443000
     47 H31          5.0160     1.0160    -0.2640 h1         1 016       0.097700
     48 H33          2.2700     1.4180    -1.8350 ha         1 016       0.134000
     49 H34          1.3160     3.4640    -2.9100 ha         1 016       0.109000
     50 H35          5.7060     1.8420     1.8900 h1         1 016       0.046700
     51 H37          3.7140     5.9510    -0.3010 ha         1 016       0.113000
     52 H38          2.0370     5.7290    -2.1460 ha         1 016       0.110000
     53 H39          4.7460     4.4860     1.8550 hc         1 016       0.058700
     54 H39A         5.9380     3.9020     0.6910 hc         1 016       0.058700
     55 H41         -2.2250     1.1550    -1.3260 h1         1 016       0.056200
     56 H41A        -3.8220     0.8720    -0.6040 h1         1 016       0.056200
     57 H44          0.4720     1.6730     0.5070 hc         1 016       0.047200
     58 H44A         1.2630     2.9710     1.4130 hc         1 016       0.047200
     59 H44B        -0.0160     2.0170     2.1750 hc         1 016       0.047200
     60 H45          0.6180     5.1390     0.6670 ha         1 016       0.113000
     61 H46         -1.0730     6.7390    -0.1880 ha         1 016       0.114000
     62 H47         -3.4010     5.9970    -0.6100 ha         1 016       0.113000
     63 H49         -4.8430     2.8240     0.5140 hc         1 016       0.047200
     64 H49A        -5.1680     4.4000    -0.2070 hc         1 016       0.047200
     65 H49B        -4.6170     3.0680    -1.2310 hc         1 016       0.047200
     66 H50         -0.1390    -4.0990     0.4470 h2         1 016       0.073200
     67 H50A         1.6000    -4.5080     0.0620 h2         1 016       0.073200
     68 H52          3.7500    -3.7750     0.5870 hc         1 016       0.053367
     69 H52A         4.7650    -2.5850     1.4100 hc         1 016       0.053367
     70 H52B         4.2070    -4.0170     2.2770 hc         1 016       0.053367
     71 H53          3.2950    -2.4510     4.1080 hc         1 016       0.053367
     72 H53A         3.7730    -1.0160     3.1940 hc         1 016       0.053367
     73 H53B         2.0920    -1.2180     3.7150 hc         1 016       0.053367
     74 H54          1.2910    -0.8530     1.4150 h1         1 016       0.094700
     75 H60         -1.8880    -3.2160    -0.2920 h1         1 016       0.086700
     76 HN60        -2.8330    -1.0480    -2.1020 hn         1 016       0.316500
     77 HO60        -0.2510    -1.5160    -3.3080 ho         1 016       0.470000
     78 H61         -3.0120    -3.4570    -3.1120 hc         1 016       0.061700
     79 H61A        -2.5250    -4.7840    -2.0790 hc         1 016       0.061700
     80 H63         -5.2570    -2.5870    -2.9640 ha         1 016       0.108000
     81 H64         -7.4990    -2.6090    -1.8940 ha         1 016       0.114000
     82 H65         -7.8460    -3.8130     0.2620 ha         1 016       0.113000
     83 H66         -5.9390    -4.9980     1.3460 ha         1 016       0.114000
     84 H67         -3.6940    -4.9820     0.2820 ha         1 016       0.108000
     85 H68         -0.1160    -3.9010    -1.8360 h1         1 016       0.085700
     86 C69          0.4670    -1.9530    -1.0810 c          1 016       0.587100
@<TRIPOS>BOND
     1     1     3 1   
     2     1    32 1   
     3     1    45 1   
     4     2     7 1   
     5     2    46 1   
     6     3     4 1   
     7     3     7 1   
     8     3    47 1   
     9     4     5 ar  
    10     4     8 ar  
    11     5     6 ar  
    12     5    48 1   
    13     6    10 ar  
    14     6    49 1   
    15     7    11 1   
    16     7    50 1   
    17     8     9 ar  
    18     8    11 1   
    19     9    10 ar  
    20     9    51 1   
    21    10    52 1   
    22    11    53 1   
    23    11    54 1   
    24    12    13 2   
    25    12    14 1   
    26    12    34 1   
    27    14    15 1   
    28    14    55 1   
    29    14    56 1   
    30    15    16 1   
    31    16    17 ar  
    32    16    22 ar  
    33    17    18 1   
    34    17    19 ar  
    35    18    57 1   
    36    18    58 1   
    37    18    59 1   
    38    19    20 ar  
    39    19    60 1   
    40    20    21 ar  
    41    20    61 1   
    42    21    22 ar  
    43    21    62 1   
    44    22    23 1   
    45    23    63 1   
    46    23    64 1   
    47    23    65 1   
    48    24    25 1   
    49    24    27 1   
    50    24    66 1   
    51    24    67 1   
    52    25    31 1   
    53    25    86 1   
    54    26    32 2   
    55    27    28 1   
    56    28    29 1   
    57    28    30 1   
    58    28    31 1   
    59    29    68 1   
    60    29    69 1   
    61    29    70 1   
    62    30    71 1   
    63    30    72 1   
    64    30    73 1   
    65    31    32 1   
    66    31    74 1   
    67    33    34 1   
    68    33    36 1   
    69    33    44 1   
    70    33    75 1   
    71    34    76 1   
    72    35    44 1   
    73    35    77 1   
    74    36    38 1   
    75    36    78 1   
    76    36    79 1   
    77    37    86 2   
    78    38    39 ar  
    79    38    43 ar  
    80    39    40 ar  
    81    39    80 1   
    82    40    41 ar  
    83    40    81 1   
    84    41    42 ar  
    85    41    82 1   
    86    42    43 ar  
    87    42    83 1   
    88    43    84 1   
    89    44    85 1   
    90    44    86 1   
@<TRIPOS>SUBSTRUCTURE
     1 016         1 TEMP              0 ****  ****    0 ROOT
