@<TRIPOS>MOLECULE
017
   75    78     1     0     0
SMALL
No Charge or Current Charge


@<TRIPOS>ATOM
      1 N1          20.7290    29.2220    14.7130 nv         1 017      -1.094000
      2 C2          20.2870    27.9470    14.9140 ca         1 017       0.367000
      3 C3          19.0160    27.5690    14.4670 ca         1 017      -0.211000
      4 C4          18.5560    26.2580    14.6690 ca         1 017       0.034500
      5 C5          19.3770    25.3230    15.3300 ca         1 017      -0.384500
      6 C6          20.6590    25.7030    15.7720 ca         1 017       0.034500
      7 C7          21.1070    27.0180    15.5630 ca         1 017      -0.211000
      8 S8          18.7990    23.6410    15.5960 sy         1 017       1.196600
      9 O9          17.6970    23.3420    14.6770 o          1 017      -0.549000
     10 O10         19.9490    22.7370    15.6940 o          1 017      -0.549000
     11 N11         18.1100    23.7210    17.1580 n3         1 017      -0.735500
     12 C12         19.1130    23.9410    18.2380 c3         1 017       0.200800
     13 C13         18.6510    23.6220    19.6850 c3         1 017      -0.062700
     14 C14         18.2590    22.1350    19.8570 c3         1 017      -0.090600
     15 C15         19.7360    24.0220    20.7110 c3         1 017      -0.090600
     16 C16         16.9200    24.6210    17.2500 c3         1 017       0.207800
     17 C17         15.6630    23.9870    17.9210 c3         1 017       0.155300
     18 O18         14.6740    25.0080    18.1720 oh         1 017      -0.674000
     19 C19         15.0430    22.8090    17.1050 c3         1 017       0.100700
     20 N20         14.0820    22.0470    17.9170 ns         1 017      -0.502900
     21 C21         14.3110    20.8050    18.4350 c          1 017       0.635100
     22 O22         15.3660    20.1960    18.3590 o          1 017      -0.537000
     23 O23         13.1470    20.3550    18.9920 os         1 017      -0.461100
     24 C24         13.1910    18.9900    19.5030 c5         1 017       0.160300
     25 C25         12.0950    18.8780    20.5970 c5         1 017       0.152600
     26 O26         10.8890    18.6200    19.8570 os         1 017      -0.468000
     27 C27         11.2150    17.6450    18.8530 c5         1 017       0.368300
     28 O28         10.4280    17.9400    17.6850 os         1 017      -0.447000
     29 C29         11.1160    18.9790    16.9650 c5         1 017       0.151600
     30 C30         12.5720    18.4620    16.9760 c5         1 017      -0.094400
     31 C31         12.7030    17.9160    18.4460 c5         1 017      -0.141700
     32 C32         14.3840    23.2150    15.7570 c3         1 017      -0.038100
     33 C33         12.4300    21.9130    14.7600 ca         1 017      -0.101500
     34 C34         11.9120    20.8130    14.0550 ca         1 017      -0.117000
     35 C35         12.7740    19.8100    13.5810 ca         1 017      -0.115000
     36 C36         14.1570    19.9120    13.8070 ca         1 017      -0.117000
     37 C37         14.6770    21.0150    14.5070 ca         1 017      -0.101500
     38 C38         13.8160    22.0210    14.9910 ca         1 017      -0.085300
     39 H11         21.7120    29.4360    14.8660 hn         1 017       0.472500
     40 H12         20.2160    29.8340    14.0810 hn         1 017       0.472500
     41 H3          18.3800    28.2880    13.9600 ha         1 017       0.118000
     42 H4          17.5670    25.9780    14.3090 ha         1 017       0.130000
     43 H6          21.3100    24.9900    16.2760 ha         1 017       0.130000
     44 H7          22.0950    27.3090    15.9090 ha         1 017       0.118000
     45 H121        20.0020    23.3210    18.0630 h1         1 017       0.053700
     46 H122        19.4540    24.9850    18.2090 h1         1 017       0.053700
     47 H13         17.7750    24.2390    19.9130 hc         1 017       0.044700
     48 H141        17.8690    21.9500    20.8660 hc         1 017       0.039867
     49 H142        17.4860    21.8430    19.1380 hc         1 017       0.039867
     50 H143        19.1270    21.4830    19.7000 hc         1 017       0.039867
     51 H151        19.3890    23.8370    21.7350 hc         1 017       0.039867
     52 H152        20.6570    23.4480    20.5520 hc         1 017       0.039867
     53 H153        19.9770    25.0890    20.6250 hc         1 017       0.039867
     54 H161        17.1870    25.5280    17.8090 h1         1 017       0.061200
     55 H162        16.6090    24.9770    16.2610 h1         1 017       0.061200
     56 H17         15.9810    23.5690    18.8820 h1         1 017       0.055700
     57 H18         14.0130    24.6220    18.7870 ho         1 017       0.449000
     58 H19         15.8770    22.1380    16.8590 h1         1 017       0.107700
     59 H20         13.1360    22.3910    18.0140 hn         1 017       0.321500
     60 H24         14.1780    18.7640    19.9300 h1         1 017       0.088700
     61 H251        12.2900    18.0360    21.2750 h1         1 017       0.062200
     62 H252        11.9880    19.7940    21.1930 h1         1 017       0.062200
     63 H27         11.0460    16.6230    19.2190 h2         1 017       0.081700
     64 H291        10.7020    19.0770    15.9530 h1         1 017       0.056700
     65 H292        11.0040    19.9350    17.4940 h1         1 017       0.056700
     66 H301        12.6790    17.6450    16.2530 hc         1 017       0.066700
     67 H302        13.3040    19.2180    16.6820 hc         1 017       0.066700
     68 H31         13.3060    17.0030    18.4960 hc         1 017       0.077700
     69 H321        13.5920    23.9480    15.9490 hc         1 017       0.062200
     70 H322        15.1160    23.7280    15.1250 hc         1 017       0.062200
     71 H34         10.8410    20.7370    13.8780 ha         1 017       0.112000
     72 H35         12.3720    18.9580    13.0390 ha         1 017       0.110000
     73 H36         14.8260    19.1380    13.4390 ha         1 017       0.112000
     74 H37         15.7490    21.0880    14.6720 ha         1 017       0.124000
     75 H33         11.7520    22.6810    15.1260 ha         1 017       0.124000
@<TRIPOS>BOND
     1     1     2 1   
     2     1    39 1   
     3     1    40 1   
     4     2     3 ar  
     5     2     7 ar  
     6     3     4 ar  
     7     3    41 1   
     8     4     5 ar  
     9     4    42 1   
    10     5     6 ar  
    11     5     8 1   
    12     6     7 ar  
    13     6    43 1   
    14     7    44 1   
    15     8     9 2   
    16     8    10 2   
    17     8    11 1   
    18    11    12 1   
    19    11    16 1   
    20    12    13 1   
    21    12    45 1   
    22    12    46 1   
    23    13    14 1   
    24    13    15 1   
    25    13    47 1   
    26    14    48 1   
    27    14    49 1   
    28    14    50 1   
    29    15    51 1   
    30    15    52 1   
    31    15    53 1   
    32    16    17 1   
    33    16    54 1   
    34    16    55 1   
    35    17    18 1   
    36    17    19 1   
    37    17    56 1   
    38    18    57 1   
    39    19    20 1   
    40    19    32 1   
    41    19    58 1   
    42    20    21 1   
    43    20    59 1   
    44    21    22 2   
    45    21    23 1   
    46    23    24 1   
    47    24    25 1   
    48    24    31 1   
    49    24    60 1   
    50    25    26 1   
    51    25    61 1   
    52    25    62 1   
    53    26    27 1   
    54    27    28 1   
    55    27    31 1   
    56    27    63 1   
    57    28    29 1   
    58    29    30 1   
    59    29    64 1   
    60    29    65 1   
    61    30    31 1   
    62    30    66 1   
    63    30    67 1   
    64    31    68 1   
    65    32    38 1   
    66    32    69 1   
    67    32    70 1   
    68    33    34 ar  
    69    33    38 ar  
    70    33    75 1   
    71    34    35 ar  
    72    34    71 1   
    73    35    36 ar  
    74    35    72 1   
    75    36    37 ar  
    76    36    73 1   
    77    37    38 ar  
    78    37    74 1   
@<TRIPOS>SUBSTRUCTURE
     1 017         1 TEMP              0 ****  ****    0 ROOT
