@<TRIPOS>MOLECULE
017
   75    78     1     0     0
SMALL
abcg2


@<TRIPOS>ATOM
      1 N1          20.5210    28.9090    14.0410 nv         1 017      -1.094000
      2 C2          20.1290    27.6620    14.4510 ca         1 017       0.367000
      3 C3          18.8880    27.1320    14.0540 ca         1 017      -0.211000
      4 C4          18.4730    25.8950    14.5060 ca         1 017       0.034500
      5 C5          19.2880    25.1510    15.3630 ca         1 017      -0.384500
      6 C6          20.5240    25.6640    15.7640 ca         1 017       0.034500
      7 C7          20.9410    26.9000    15.3130 ca         1 017      -0.211000
      8 S8          18.7320    23.6140    16.0030 sy         1 017       1.196600
      9 O9          17.6590    23.1410    15.1580 o          1 017      -0.549000
     10 O10         19.8800    22.7610    16.2180 o          1 017      -0.549000
     11 N11         18.0700    23.9020    17.4910 n3         1 017      -0.735500
     12 C12         19.0150    24.1530    18.5970 c3         1 017       0.200800
     13 C13         18.5420    23.5880    19.9390 c3         1 017      -0.062700
     14 C14         18.3360    22.0770    19.8720 c3         1 017      -0.090600
     15 C15         19.5620    23.9640    21.0150 c3         1 017      -0.090600
     16 C16         16.8530    24.7270    17.5050 c3         1 017       0.207800
     17 C17         15.6410    24.0060    18.0940 c3         1 017       0.155300
     18 O18         14.6590    25.0240    18.3020 oh         1 017      -0.674000
     19 C19         15.1100    22.8520    17.2290 c3         1 017       0.100700
     20 N20         14.1710    22.0530    18.0030 ns         1 017      -0.502900
     21 C21         14.3870    20.7610    18.3160 c          1 017       0.635100
     22 O22         15.4050    20.1290    18.0850 o          1 017      -0.537000
     23 O23         13.3030    20.2460    18.9480 os         1 017      -0.461100
     24 C24         13.3330    18.8440    19.2820 c5         1 017       0.160300
     25 C25         12.4400    18.6450    20.4910 c5         1 017       0.152600
     26 O26         11.1170    18.5180    19.9670 os         1 017      -0.468000
     27 C27         11.1980    17.7920    18.7380 c5         1 017       0.368300
     28 O28         10.3190    18.3260    17.7900 os         1 017      -0.447000
     29 C29         11.0530    19.2320    16.9370 c5         1 017       0.151600
     30 C30         12.4370    18.6040    16.8240 c5         1 017      -0.094400
     31 C31         12.6450    17.9770    18.2090 c5         1 017      -0.141700
     32 C32         14.4570    23.3190    15.9210 c3         1 017      -0.038100
     33 C33         12.5720    22.0150    14.8670 ca         1 017      -0.101500
     34 C34         12.0880    20.9650    14.0920 ca         1 017      -0.117000
     35 C35         12.9710    20.0490    13.5310 ca         1 017      -0.115000
     36 C36         14.3380    20.1950    13.7480 ca         1 017      -0.117000
     37 C37         14.8180    21.2500    14.5150 ca         1 017      -0.101500
     38 C38         13.9400    22.1770    15.0840 ca         1 017      -0.085300
     39 H11         21.4970    29.1470    14.1230 hn         1 017       0.472500
     40 H12         20.0570    29.3070    13.2400 hn         1 017       0.472500
     41 H3          18.2580    27.7020    13.3830 ha         1 017       0.118000
     42 H4          17.5210    25.4950    14.1850 ha         1 017       0.130000
     43 H6          21.1640    25.0880    16.4180 ha         1 017       0.130000
     44 H7          21.9040    27.2910    15.6180 ha         1 017       0.118000
     45 H121        19.9610    23.6830    18.3410 h1         1 017       0.053700
     46 H122        19.1830    25.2320    18.6880 h1         1 017       0.053700
     47 H13         17.5940    24.0650    20.2040 hc         1 017       0.044700
     48 H141        17.9840    21.6940    20.8320 hc         1 017       0.039867
     49 H142        17.6070    21.8010    19.1100 hc         1 017       0.039867
     50 H143        19.2770    21.5750    19.6310 hc         1 017       0.039867
     51 H151        19.2380    23.6050    21.9930 hc         1 017       0.039867
     52 H152        20.5360    23.5160    20.7970 hc         1 017       0.039867
     53 H153        19.6940    25.0470    21.0770 hc         1 017       0.039867
     54 H161        17.0420    25.6130    18.1130 h1         1 017       0.061200
     55 H162        16.6180    25.0770    16.5010 h1         1 017       0.061200
     56 H17         15.9210    23.5730    19.0560 h1         1 017       0.055700
     57 H18         13.9890    24.6920    18.9120 ho         1 017       0.449000
     58 H19         15.9510    22.2010    17.0050 h1         1 017       0.107700
     59 H20         13.2420    22.4120    18.1660 hn         1 017       0.321500
     60 H24         14.3630    18.5500    19.4590 h1         1 017       0.088700
     61 H251        12.7340    17.7330    21.0230 h1         1 017       0.062200
     62 H252        12.4630    19.4880    21.1800 h1         1 017       0.062200
     63 H27         10.9030    16.7560    18.9180 h2         1 017       0.081700
     64 H291        10.5170    19.2950    15.9940 h1         1 017       0.056700
     65 H292        11.0980    20.2240    17.3940 h1         1 017       0.056700
     66 H301        12.4280    17.8210    16.0650 hc         1 017       0.066700
     67 H302        13.2020    19.3250    16.5480 hc         1 017       0.066700
     68 H31         13.1640    17.0220    18.1490 hc         1 017       0.077700
     69 H321        13.6370    23.9980    16.1600 hc         1 017       0.062200
     70 H322        15.1950    23.8860    15.3540 hc         1 017       0.062200
     71 H34         11.0220    20.8580    13.9360 ha         1 017       0.112000
     72 H35         12.5970    19.2260    12.9350 ha         1 017       0.110000
     73 H36         15.0340    19.4850    13.3170 ha         1 017       0.112000
     74 H37         15.8830    21.3630    14.6740 ha         1 017       0.124000
     75 H33         11.8780    22.7210    15.3090 ha         1 017       0.124000
@<TRIPOS>BOND
     1     1     2 1   
     2     1    39 1   
     3     1    40 1   
     4     2     3 ar  
     5     2     7 ar  
     6     3     4 ar  
     7     3    41 1   
     8     4     5 ar  
     9     4    42 1   
    10     5     6 ar  
    11     5     8 1   
    12     6     7 ar  
    13     6    43 1   
    14     7    44 1   
    15     8     9 2   
    16     8    10 2   
    17     8    11 1   
    18    11    12 1   
    19    11    16 1   
    20    12    13 1   
    21    12    45 1   
    22    12    46 1   
    23    13    14 1   
    24    13    15 1   
    25    13    47 1   
    26    14    48 1   
    27    14    49 1   
    28    14    50 1   
    29    15    51 1   
    30    15    52 1   
    31    15    53 1   
    32    16    17 1   
    33    16    54 1   
    34    16    55 1   
    35    17    18 1   
    36    17    19 1   
    37    17    56 1   
    38    18    57 1   
    39    19    20 1   
    40    19    32 1   
    41    19    58 1   
    42    20    21 1   
    43    20    59 1   
    44    21    22 2   
    45    21    23 1   
    46    23    24 1   
    47    24    25 1   
    48    24    31 1   
    49    24    60 1   
    50    25    26 1   
    51    25    61 1   
    52    25    62 1   
    53    26    27 1   
    54    27    28 1   
    55    27    31 1   
    56    27    63 1   
    57    28    29 1   
    58    29    30 1   
    59    29    64 1   
    60    29    65 1   
    61    30    31 1   
    62    30    66 1   
    63    30    67 1   
    64    31    68 1   
    65    32    38 1   
    66    32    69 1   
    67    32    70 1   
    68    33    34 ar  
    69    33    38 ar  
    70    33    75 1   
    71    34    35 ar  
    72    34    71 1   
    73    35    36 ar  
    74    35    72 1   
    75    36    37 ar  
    76    36    73 1   
    77    37    38 ar  
    78    37    74 1   
@<TRIPOS>SUBSTRUCTURE
     1 017         1 TEMP              0 ****  ****    0 ROOT
