@<TRIPOS>MOLECULE
018
   29    30     1     0     0
SMALL
No Charge or Current Charge


@<TRIPOS>ATOM
      1 OAR          0.8820    -2.3590    -0.1510 o          1 018      -0.420500
      2 NAQ         -0.1800    -2.0990     0.4290 no         1 018       0.710200
      3 OAP         -0.7470    -2.8870     1.1960 o          1 018      -0.420500
      4 CAI         -0.8730    -0.8210     0.1170 ca         1 018      -0.308200
      5 CAH         -2.2830    -0.7830     0.1980 ca         1 018       0.061000
      6 CAD         -2.9900     0.4050    -0.0760 ca         1 018      -0.288300
      7 CAC         -4.5180     0.4230     0.0230 c3         1 018       0.370300
      8 FAA         -4.9240     0.5450     1.3060 f          1 018      -0.113333
      9 FAG         -5.0740     1.4460    -0.6660 f          1 018      -0.113333
     10 FAB         -5.0700    -0.7120    -0.4620 f          1 018      -0.113333
     11 CAJ         -0.1680     0.3500    -0.2260 ca         1 018       0.444000
     12 CAF         -0.8750     1.5310    -0.4880 ca         1 018      -0.234000
     13 CAE         -2.2730     1.5680    -0.4150 ca         1 018       0.032000
     14 NAK          1.2190     0.3740    -0.3020 nu         1 018      -0.930200
     15 CAL          2.0970     1.4600     0.1300 c3         1 018       0.293100
     16 CAM          3.5150     0.9560     0.1060 cc         1 018      -0.151300
     17 CAN          4.3780     1.0060    -0.9630 cd         1 018      -0.224000
     18 SAO          5.9570     0.2960    -0.5840 ss         1 018       0.237000
     19 CAT          5.4010    -0.0680     1.0550 cd         1 018      -0.241000
     20 CAS          4.1080     0.3430     1.2420 cc         1 018      -0.117000
     21 HAH         -2.8380    -1.6810     0.4710 ha         1 018       0.163000
     22 HAF         -0.3400     2.4360    -0.7590 ha         1 018       0.128000
     23 HAE         -2.7910     2.5040    -0.6200 ha         1 018       0.132000
     24 HNAK         1.6490    -0.5530    -0.2990 hn         1 018       0.541000
     25 HAL          2.0010     2.3300    -0.5340 h1         1 018       0.056200
     26 HALA         1.8400     1.7790     1.1510 h1         1 018       0.056200
     27 HAN          4.1930     1.4090    -1.9510 h4         1 018       0.154000
     28 HAT          6.0620    -0.5570     1.7610 h4         1 018       0.157000
     29 HAS          3.5670     0.2150     2.1770 ha         1 018       0.141000
@<TRIPOS>BOND
     1     1     2 1   
     2     2     3 1   
     3     2     4 1   
     4     4     5 ar  
     5     4    11 ar  
     6     5     6 ar  
     7     5    21 1   
     8     6     7 1   
     9     6    13 ar  
    10     7     8 1   
    11     7     9 1   
    12     7    10 1   
    13    11    12 ar  
    14    11    14 1   
    15    12    13 ar  
    16    12    22 1   
    17    13    23 1   
    18    14    15 1   
    19    14    24 1   
    20    15    16 1   
    21    15    25 1   
    22    15    26 1   
    23    16    17 2   
    24    16    20 1   
    25    17    18 1   
    26    17    27 1   
    27    18    19 1   
    28    19    20 2   
    29    19    28 1   
    30    20    29 1   
@<TRIPOS>SUBSTRUCTURE
     1 018         1 TEMP              0 ****  ****    0 ROOT
