@<TRIPOS>MOLECULE
018
   29    30     1     0     0
SMALL
bcc


@<TRIPOS>ATOM
      1 OAR          0.8100    -2.4180     0.0500 o          1 018      -0.230500
      2 NAQ         -0.4000    -2.2720     0.0830 no         1 018       0.330200
      3 OAP         -1.1610    -3.2110     0.1570 o          1 018      -0.230500
      4 CAI         -0.9390    -0.9440     0.0350 ca         1 018      -0.308200
      5 CAH         -2.3300    -0.8360     0.0650 ca         1 018       0.043000
      6 CAD         -2.9430     0.3900     0.0190 ca         1 018      -0.288300
      7 CAC         -4.4260     0.5250     0.0870 c3         1 018       0.734200
      8 FAA         -4.8290     1.0030     1.2760 f          1 018      -0.234633
      9 FAG         -4.8900     1.3810    -0.8350 f          1 018      -0.234633
     10 FAB         -5.0590    -0.6360    -0.0980 f          1 018      -0.234633
     11 CAJ         -0.1050     0.2080    -0.0390 ca         1 018       0.305600
     12 CAF         -0.7830     1.4540    -0.0920 ca         1 018      -0.252000
     13 CAE         -2.1460     1.5420    -0.0600 ca         1 018       0.014000
     14 NAK          1.2310     0.1820    -0.0590 nu         1 018      -0.736600
     15 CAL          2.0730     1.3590    -0.1680 c3         1 018       0.293100
     16 CAM          3.5050     0.9680     0.0180 cc         1 018      -0.151300
     17 CAN          4.4340     0.9500    -0.9780 cd         1 018      -0.097100
     18 SAO          5.9670     0.4420    -0.4090 ss         1 018      -0.052800
     19 CAT          5.3720     0.2380     1.1860 cd         1 018      -0.114100
     20 CAS          4.0520     0.5520     1.2690 cc         1 018      -0.135000
     21 HAH         -2.9170    -1.7410     0.1250 ha         1 018       0.181000
     22 HAF         -0.2100     2.3650    -0.1710 ha         1 018       0.146000
     23 HAE         -2.5970     2.5250    -0.1060 ha         1 018       0.150000
     24 HNAK         1.6800    -0.7180    -0.0990 hn         1 018       0.485800
     25 HAL          1.9380     1.8450    -1.1380 h1         1 018       0.056200
     26 HALA         1.7960     2.0860     0.6000 h1         1 018       0.056200
     27 HAN          4.2920     1.2110    -2.0160 h4         1 018       0.172000
     28 HAT          6.0280    -0.0930     1.9760 h4         1 018       0.175000
     29 HAS          3.4820     0.5010     2.1870 ha         1 018       0.159000
@<TRIPOS>BOND
     1     1     2 1   
     2     2     3 1   
     3     2     4 1   
     4     4     5 ar  
     5     4    11 ar  
     6     5     6 ar  
     7     5    21 1   
     8     6     7 1   
     9     6    13 ar  
    10     7     8 1   
    11     7     9 1   
    12     7    10 1   
    13    11    12 ar  
    14    11    14 1   
    15    12    13 ar  
    16    12    22 1   
    17    13    23 1   
    18    14    15 1   
    19    14    24 1   
    20    15    16 1   
    21    15    25 1   
    22    15    26 1   
    23    16    17 2   
    24    16    20 1   
    25    17    18 1   
    26    17    27 1   
    27    18    19 1   
    28    19    20 2   
    29    19    28 1   
    30    20    29 1   
@<TRIPOS>SUBSTRUCTURE
     1 018         1 TEMP              0 ****  ****    0 ROOT
