@<TRIPOS>MOLECULE
019
   27    27     1     0     0
SMALL
No Charge or Current Charge


@<TRIPOS>ATOM
      1 C21         -3.3140     0.3020     0.8490 c          1 019       0.748000
      2 N74         -2.7720    -0.6330    -0.0520 n          1 019      -0.467800
      3 C75         -1.6360    -0.2780    -0.9470 c3         1 019       0.079700
      4 O76         -2.8440     1.4260     0.8730 o          1 019      -0.736000
      5 C77         -0.2880    -0.2830    -0.2520 cc         1 019       0.317300
      6 C80          0.0600    -1.0630     0.8270 cd         1 019      -0.282000
      7 S81          1.7200    -0.7750     1.3110 ss         1 019      -0.162400
      8 C82          1.8090     0.3840    -0.0120 cd         1 019       0.443700
      9 N83          0.7090     0.5320    -0.7340 nc         1 019      -0.590000
     10 C85          3.0700     1.1640    -0.3210 c3         1 019      -0.096000
     11 C86          3.4750     2.0890     0.8500 c3         1 019      -0.085600
     12 C90          4.2320     0.2330    -0.7390 c3         1 019      -0.085600
     13 C95         -3.2900    -2.0160    -0.1150 c3         1 019       0.125300
     14 H751        -1.5950    -0.9850    -1.7860 h1         1 019       0.046700
     15 H752        -1.8160     0.7150    -1.3790 h1         1 019       0.046700
     16 H80         -0.5600    -1.7760     1.3550 h4         1 019       0.147000
     17 H85          2.8630     1.8150    -1.1800 hc         1 019       0.079700
     18 H861         3.7360     1.5050     1.7410 hc         1 019       0.034867
     19 H862         4.3420     2.7030     0.5770 hc         1 019       0.034867
     20 H863         2.6500     2.7630     1.1110 hc         1 019       0.034867
     21 H901         3.9380    -0.3910    -1.5920 hc         1 019       0.034867
     22 H902         5.1110     0.8190    -1.0350 hc         1 019       0.034867
     23 H903         4.5230    -0.4280     0.0860 hc         1 019       0.034867
     24 H951        -4.3310    -2.0050    -0.4620 h1         1 019       0.000033
     25 H952        -2.6900    -2.6210    -0.8070 h1         1 019       0.000033
     26 H953        -3.2420    -2.4750     0.8810 h1         1 019       0.000033
     27 OXT         -4.2390    -0.0480     1.5630 o          1 019      -0.736000
@<TRIPOS>BOND
     1     1     2 1   
     2     1     4 1   
     3     1    27 1   
     4     2     3 1   
     5     2    13 1   
     6     3     5 1   
     7     3    14 1   
     8     3    15 1   
     9     5     6 2   
    10     5     9 1   
    11     6     7 1   
    12     6    16 1   
    13     7     8 1   
    14     8     9 2   
    15     8    10 1   
    16    10    11 1   
    17    10    12 1   
    18    10    17 1   
    19    11    18 1   
    20    11    19 1   
    21    11    20 1   
    22    12    21 1   
    23    12    22 1   
    24    12    23 1   
    25    13    24 1   
    26    13    25 1   
    27    13    26 1   
@<TRIPOS>SUBSTRUCTURE
     1 019         1 TEMP              0 ****  ****    0 ROOT
