@<TRIPOS>MOLECULE
019
   27    27     1     0     0
SMALL
abcg2


@<TRIPOS>ATOM
      1 C21         -3.2350     0.8880    -0.2750 c          1 019       0.748000
      2 N74         -2.4440    -0.2430    -0.0180 n          1 019      -0.467800
      3 C75         -1.6870    -0.8780    -1.0610 c3         1 019       0.079700
      4 O76         -3.1210     1.4310    -1.3960 o          1 019      -0.736000
      5 C77         -0.2180    -0.9120    -0.7640 cc         1 019       0.317300
      6 C80          0.5370    -2.0330    -0.6280 cd         1 019      -0.282000
      7 S81          2.1670    -1.6120    -0.2950 ss         1 019      -0.162400
      8 C82          1.7220     0.0650    -0.3520 cd         1 019       0.443700
      9 N83          0.4700     0.2630    -0.6010 nc         1 019      -0.590000
     10 C85          2.7140     1.1530    -0.0690 c3         1 019      -0.096000
     11 C86          2.7500     1.4500     1.4330 c3         1 019      -0.085600
     12 C90          4.1060     0.8270    -0.5990 c3         1 019      -0.085600
     13 C95         -2.6110    -0.9820     1.2060 c3         1 019       0.125300
     14 H751        -2.0300    -1.9050    -1.2370 h1         1 019       0.046700
     15 H752        -1.8550    -0.3250    -1.9830 h1         1 019       0.046700
     16 H80          0.2230    -3.0610    -0.7130 h4         1 019       0.147000
     17 H85          2.3390     2.0410    -0.5850 hc         1 019       0.079700
     18 H861         3.1070     0.5840     1.9950 hc         1 019       0.034867
     19 H862         3.4240     2.2820     1.6370 hc         1 019       0.034867
     20 H863         1.7620     1.7130     1.8100 hc         1 019       0.034867
     21 H901         4.0920     0.6020    -1.6650 hc         1 019       0.034867
     22 H902         4.7730     1.6750    -0.4440 hc         1 019       0.034867
     23 H903         4.5450    -0.0270    -0.0760 hc         1 019       0.034867
     24 H951        -3.5230    -1.5920     1.2220 h1         1 019       0.000033
     25 H952        -1.7680    -1.6610     1.3400 h1         1 019       0.000033
     26 H953        -2.6370    -0.3250     2.0730 h1         1 019       0.000033
     27 OXT         -3.9840     1.2570     0.6560 o          1 019      -0.736000
@<TRIPOS>BOND
     1     1     2 1   
     2     1     4 1   
     3     1    27 1   
     4     2     3 1   
     5     2    13 1   
     6     3     5 1   
     7     3    14 1   
     8     3    15 1   
     9     5     6 2   
    10     5     9 1   
    11     6     7 1   
    12     6    16 1   
    13     7     8 1   
    14     8     9 2   
    15     8    10 1   
    16    10    11 1   
    17    10    12 1   
    18    10    17 1   
    19    11    18 1   
    20    11    19 1   
    21    11    20 1   
    22    12    21 1   
    23    12    22 1   
    24    12    23 1   
    25    13    24 1   
    26    13    25 1   
    27    13    26 1   
@<TRIPOS>SUBSTRUCTURE
     1 019         1 TEMP              0 ****  ****    0 ROOT
