@<TRIPOS>MOLECULE
01A
   95    98     1     0     0
SMALL
abcg2


@<TRIPOS>ATOM
      1 O7A         25.5670    39.6210    79.8020 o          1 01A      -0.868833
      2 P3A         24.3440    39.3370    78.9560 p5         1 01A       1.300900
      3 O9A         23.0750    40.0670    79.3560 o          1 01A      -0.868833
      4 O8A         24.6090    39.3870    77.4380 o          1 01A      -0.868833
      5 O3A         24.0570    37.7050    79.2600 os         1 01A      -0.605400
      6 C3A         22.9380    37.0940    78.6360 c5         1 01A       0.188300
      7 C2A         23.3300    36.3810    77.3290 c5         1 01A       0.145300
      8 O2A         24.2470    37.0260    76.4900 oh         1 01A      -0.837000
      9 C1A         23.8810    35.0500    77.8580 c5         1 01A       0.283300
     10 N9A         23.7420    33.9430    76.9310 na         1 01A      -0.245300
     11 C4A         24.7270    33.0360    76.6110 ca         1 01A       0.109500
     12 C5A         24.1270    32.1280    75.7360 ca         1 01A      -0.053600
     13 C6A         24.9240    31.0650    75.2950 ca         1 01A       0.352900
     14 N6A         24.4270    30.0450    74.5330 nv         1 01A      -1.071900
     15 N1A         26.1990    31.0040    75.7040 nb         1 01A      -0.323000
     16 C10         26.6550    31.9500    76.5360 ca         1 01A       0.101900
     17 N3A         25.9900    32.9860    77.0410 nb         1 01A      -0.152000
     18 N7A         22.8020    32.4680    75.5220 nc         1 01A      -0.623100
     19 C8A         22.6130    33.5450    76.2440 cd         1 01A       0.513700
     20 O4A         23.1780    34.7590    79.0550 os         1 01A      -0.472000
     21 C11         22.4580    35.9300    79.5100 c5         1 01A       0.147300
     22 C12         20.9690    35.6520    79.4840 c3         1 01A       0.222600
     23 O5A         20.5580    35.4220    78.1410 os         1 01A      -0.623400
     24 P1A         19.2380    34.5580    77.7800 p5         1 01A       1.491800
     25 O1A         19.2640    34.4200    76.2940 o          1 01A      -0.866000
     26 O11         18.0350    35.1100    78.4740 o          1 01A      -0.866000
     27 O10         19.6640    33.1490    78.4810 os         1 01A      -0.740800
     28 P2A         18.6980    31.8880    78.8740 p5         1 01A       1.487800
     29 O12         17.7250    31.6610    77.7610 o          1 01A      -0.863500
     30 O13         18.2110    32.0500    80.2750 o          1 01A      -0.863500
     31 O6A         19.8120    30.7180    78.9270 os         1 01A      -0.615400
     32 CCP         20.5910    30.3820    77.7710 c3         1 01A       0.237600
     33 CBP         20.6080    28.8600    77.5450 c3         1 01A      -0.050000
     34 CDP         19.2040    28.3980    77.1370 c3         1 01A      -0.073600
     35 CEP         21.0410    28.1330    78.8230 c3         1 01A      -0.073600
     36 CAP         21.6190    28.6170    76.3940 c3         1 01A       0.099300
     37 OAP         22.9230    28.9640    76.8490 oh         1 01A      -0.669000
     38 C9P         21.5900    27.1820    75.8490 c          1 01A       0.567100
     39 O9P         20.7550    26.8340    75.0140 o          1 01A      -0.631100
     40 N8P         22.5370    26.3740    76.3500 ns         1 01A      -0.513900
     41 C7P         22.7500    25.0040    75.9330 c3         1 01A       0.112000
     42 C6P         24.0630    24.8580    75.1530 c3         1 01A      -0.183400
     43 C5P         24.2990    23.4130    74.7660 c          1 01A       0.597100
     44 O5P         23.5580    22.8330    73.9690 o          1 01A      -0.613100
     45 N4P         25.3400    22.8040    75.3670 ns         1 01A      -0.517900
     46 C3P         25.7150    21.4260    75.1050 c3         1 01A       0.107000
     47 C2P         26.6610    21.3160    73.9100 c3         1 01A       0.042600
     48 S1P         27.2500    19.6160    73.6220 ss         1 01A      -0.434000
     49 C1          28.5350    19.5090    74.9320 c3         1 01A      -0.037400
     50 C           28.6950    18.0670    75.3670 c          1 01A       0.586700
     51 O2          28.3790    17.7300    76.4960 o          1 01A      -0.533100
     52 C13         29.2100    17.0780    74.3840 ca         1 01A      -0.177600
     53 C6          29.0640    15.7140    74.6590 ca         1 01A      -0.057000
     54 C5          29.5270    14.7590    73.7720 ca         1 01A      -0.119000
     55 C2          29.8450    17.4700    73.2020 ca         1 01A      -0.057000
     56 C3          30.3260    16.5230    72.3100 ca         1 01A      -0.119000
     57 C4          30.1580    15.1760    72.6050 ca         1 01A       0.119000
     58 CL4A        30.7500    13.9800    71.4830 cl         1 01A      -0.234000
     59 H3A         22.1480    37.8310    78.4770 h1         1 01A       0.075700
     60 H2A         22.4040    36.1760    76.7880 h1         1 01A       0.060700
     61 H2AA        24.4190    37.9650    76.8380 ho         1 01A       0.606000
     62 H1A         24.9500    35.1420    78.0550 h2         1 01A       0.087700
     63 HN6A        23.6140    30.2490    73.9690 hn         1 01A       0.458500
     64 HN6B        25.1100    29.4440    74.0970 hn         1 01A       0.458500
     65 H9          27.6930    31.8520    76.8340 h5         1 01A       0.012100
     66 H8A         21.6760    34.0760    76.3250 h5         1 01A       0.146800
     67 H4A         22.7470    36.1220    80.5430 h1         1 01A       0.055700
     68 H5A         20.7620    34.7730    80.0980 h1         1 01A       0.028200
     69 H5AA        20.4300    36.5080    79.8990 h1         1 01A       0.028200
     70 HCP         20.1800    30.8730    76.8820 h1         1 01A       0.050700
     71 HCPA        21.6020    30.7530    77.9330 h1         1 01A       0.050700
     72 HDP         18.4820    28.7440    77.8750 hc         1 01A       0.031867
     73 HDPA        18.9220    28.8060    76.1670 hc         1 01A       0.031867
     74 HDPB        19.1460    27.3110    77.0790 hc         1 01A       0.031867
     75 HEP         21.0770    27.0550    78.6630 hc         1 01A       0.031867
     76 HEPA        22.0240    28.4650    79.1570 hc         1 01A       0.031867
     77 HEPB        20.3240    28.3310    79.6190 hc         1 01A       0.031867
     78 HAP         21.3300    29.2530    75.5510 h1         1 01A       0.081700
     79 HOAP        23.4800    29.1220    76.0650 ho         1 01A       0.461000
     80 HN8P        23.2070    26.8000    76.9740 hn         1 01A       0.335500
     81 H7P         22.7690    24.3580    76.8140 h1         1 01A       0.057700
     82 H7PA        21.9070    24.7100    75.3140 h1         1 01A       0.057700
     83 H6P         24.0050    25.4480    74.2360 hc         1 01A       0.067700
     84 H6PA        24.8870    25.2430    75.7560 hc         1 01A       0.067700
     85 HN4P        25.9260    23.3450    75.9830 hn         1 01A       0.316500
     86 H3P         26.1860    21.0310    76.0040 h1         1 01A       0.062200
     87 H3PA        24.8100    20.8520    74.9130 h1         1 01A       0.062200
     88 H2P         26.1490    21.6060    72.9920 h1         1 01A       0.079200
     89 H2PA        27.5270    21.9670    74.0380 h1         1 01A       0.079200
     90 H1          29.4740    19.9180    74.5550 h1         1 01A       0.081200
     91 H10         28.2090    20.0810    75.7960 h1         1 01A       0.081200
     92 H6          28.5690    15.4100    75.5710 ha         1 01A       0.128500
     93 H5          29.4030    13.7050    73.9780 ha         1 01A       0.123500
     94 H2          29.9730    18.5160    72.9650 ha         1 01A       0.128500
     95 H3          30.8230    16.8250    71.3990 ha         1 01A       0.123500
@<TRIPOS>BOND
     1     1     2 1   
     2     2     3 1   
     3     2     4 1   
     4     2     5 1   
     5     5     6 1   
     6     6     7 1   
     7     6    21 1   
     8     6    59 1   
     9     7     8 1   
    10     7     9 1   
    11     7    60 1   
    12     8    61 1   
    13     9    10 1   
    14     9    20 1   
    15     9    62 1   
    16    10    11 1   
    17    10    19 1   
    18    11    12 ar  
    19    11    17 ar  
    20    12    13 ar  
    21    12    18 1   
    22    13    14 1   
    23    13    15 ar  
    24    14    63 1   
    25    14    64 1   
    26    15    16 ar  
    27    16    17 ar  
    28    16    65 1   
    29    18    19 2   
    30    19    66 1   
    31    20    21 1   
    32    21    22 1   
    33    21    67 1   
    34    22    23 1   
    35    22    68 1   
    36    22    69 1   
    37    23    24 1   
    38    24    25 1   
    39    24    26 1   
    40    24    27 1   
    41    27    28 1   
    42    28    29 1   
    43    28    30 1   
    44    28    31 1   
    45    31    32 1   
    46    32    33 1   
    47    32    70 1   
    48    32    71 1   
    49    33    34 1   
    50    33    35 1   
    51    33    36 1   
    52    34    72 1   
    53    34    73 1   
    54    34    74 1   
    55    35    75 1   
    56    35    76 1   
    57    35    77 1   
    58    36    37 1   
    59    36    38 1   
    60    36    78 1   
    61    37    79 1   
    62    38    39 2   
    63    38    40 1   
    64    40    41 1   
    65    40    80 1   
    66    41    42 1   
    67    41    81 1   
    68    41    82 1   
    69    42    43 1   
    70    42    83 1   
    71    42    84 1   
    72    43    44 2   
    73    43    45 1   
    74    45    46 1   
    75    45    85 1   
    76    46    47 1   
    77    46    86 1   
    78    46    87 1   
    79    47    48 1   
    80    47    88 1   
    81    47    89 1   
    82    48    49 1   
    83    49    50 1   
    84    49    90 1   
    85    49    91 1   
    86    50    51 2   
    87    50    52 1   
    88    52    53 ar  
    89    52    55 ar  
    90    53    54 ar  
    91    53    92 1   
    92    54    57 ar  
    93    54    93 1   
    94    55    56 ar  
    95    55    94 1   
    96    56    57 ar  
    97    56    95 1   
    98    57    58 1   
@<TRIPOS>SUBSTRUCTURE
     1 01A         1 TEMP              0 ****  ****    0 ROOT
