@<TRIPOS>MOLECULE
01A
   95    98     1     0     0
SMALL
No Charge or Current Charge


@<TRIPOS>ATOM
      1 O7A         25.5930    39.3230    80.0270 o          1 01A      -0.868833
      2 P3A         24.4960    39.1450    79.0400 p5         1 01A       1.300900
      3 O9A         23.4850    40.2230    79.1960 o          1 01A      -0.868833
      4 O8A         25.0480    39.1390    77.6600 o          1 01A      -0.868833
      5 O3A         23.7990    37.7180    79.2880 os         1 01A      -0.605400
      6 C3A         22.7180    37.3450    78.3810 c5         1 01A       0.188300
      7 C2A         23.2530    36.5090    77.1640 c5         1 01A       0.145300
      8 O2A         24.3610    37.0800    76.4280 oh         1 01A      -0.837000
      9 C1A         23.5680    35.1730    77.9140 c5         1 01A       0.283300
     10 N9A         23.6800    33.9800    77.0840 na         1 01A      -0.245300
     11 C4A         24.6770    33.0390    77.0600 ca         1 01A       0.109500
     12 C5A         24.3110    32.0860    76.1410 ca         1 01A      -0.053600
     13 C6A         25.1720    30.9860    75.9450 ca         1 01A       0.352900
     14 N6A         24.8760    29.9630    75.0930 nv         1 01A      -1.071900
     15 N1A         26.3210    30.8690    76.6250 nb         1 01A      -0.323000
     16 C10         26.5960    31.8660    77.5010 ca         1 01A       0.101900
     17 N3A         25.8290    32.9510    77.7590 nb         1 01A      -0.152000
     18 N7A         23.0910    32.3650    75.5370 nc         1 01A      -0.623100
     19 C8A         22.7380    33.5180    76.1470 cd         1 01A       0.513700
     20 O4A         22.4730    34.9870    78.8400 os         1 01A      -0.472000
     21 C11         21.8480    36.2760    79.1240 c5         1 01A       0.147300
     22 C12         20.3470    36.2690    78.6910 c3         1 01A       0.222600
     23 O5A         20.2060    35.7350    77.3630 os         1 01A      -0.623400
     24 P1A         19.0960    34.6050    77.0660 p5         1 01A       1.491800
     25 O1A         19.0570    34.3780    75.5920 o          1 01A      -0.866000
     26 O11         17.7820    35.0400    77.6230 o          1 01A      -0.866000
     27 O10         19.8200    33.4370    77.8300 os         1 01A      -0.740800
     28 P2A         18.8650    32.2090    78.0690 p5         1 01A       1.487800
     29 O12         18.2020    31.6790    76.8430 o          1 01A      -0.863500
     30 O13         17.9080    32.4310    79.1940 o          1 01A      -0.863500
     31 O6A         20.0110    31.1940    78.5760 os         1 01A      -0.615400
     32 CCP         20.9790    30.6620    77.6570 c3         1 01A       0.237600
     33 CBP         20.8970    29.0980    77.5900 c3         1 01A      -0.050000
     34 CDP         19.5030    28.6650    77.0480 c3         1 01A      -0.073600
     35 CEP         21.0770    28.4880    79.0140 c3         1 01A      -0.073600
     36 CAP         22.0340    28.6000    76.6190 c3         1 01A       0.099300
     37 OAP         23.3410    28.9190    77.1670 oh         1 01A      -0.669000
     38 C9P         21.9340    27.0870    76.2200 c          1 01A       0.567100
     39 O9P         21.2800    26.6850    75.2660 o          1 01A      -0.631100
     40 N8P         22.7060    26.2330    76.9810 ns         1 01A      -0.513900
     41 C7P         22.8240    24.7890    76.7790 c3         1 01A       0.112000
     42 C6P         23.8020    24.4480    75.6410 c3         1 01A      -0.183400
     43 C5P         23.9390    22.9360    75.4870 c          1 01A       0.597100
     44 O5P         23.0630    22.2440    74.9920 o          1 01A      -0.613100
     45 N4P         25.1360    22.4110    75.9180 ns         1 01A      -0.517900
     46 C3P         25.5020    20.9910    75.8450 c3         1 01A       0.107000
     47 C2P         25.8240    20.5350    74.4060 c3         1 01A       0.042600
     48 S1P         26.2980    18.7420    74.3520 ss         1 01A      -0.434000
     49 C1          28.0250    18.8230    75.0550 c3         1 01A      -0.037400
     50 C           28.7330    17.4520    75.0770 c          1 01A       0.586700
     51 O2          28.7820    16.8090    76.1210 o          1 01A      -0.533100
     52 C13         29.3660    16.9120    73.8070 ca         1 01A      -0.177600
     53 C6          30.1440    15.7310    73.8600 ca         1 01A      -0.057000
     54 C5          30.7400    15.2120    72.6970 ca         1 01A      -0.119000
     55 C2          29.1980    17.5570    72.5570 ca         1 01A      -0.057000
     56 C3          29.7960    17.0330    71.3980 ca         1 01A      -0.119000
     57 C4          30.5660    15.8640    71.4680 ca         1 01A       0.119000
     58 Cl4A        31.3120    15.2130    70.0140 cl         1 01A      -0.234000
     59 H3A         22.1350    38.2260    78.0770 h1         1 01A       0.075700
     60 H2A         22.4270    36.3410    76.4610 h1         1 01A       0.060700
     61 H2AA        24.6530    37.9210    76.9420 ho         1 01A       0.606000
     62 H1A         24.5080    35.2690    78.4720 h2         1 01A       0.087700
     63 HN6A        24.2100    30.1940    74.3580 hn         1 01A       0.458500
     64 HN6B        25.6570    29.3830    74.7910 hn         1 01A       0.458500
     65 H9          27.5270    31.7830    78.0590 h5         1 01A       0.012100
     66 H8A         21.8270    34.0740    75.9590 h5         1 01A       0.146800
     67 H4A         21.8740    36.4480    80.2080 h1         1 01A       0.055700
     68 H5A         19.7860    35.6700    79.4210 h1         1 01A       0.028200
     69 H5AA        19.9550    37.2930    78.7350 h1         1 01A       0.028200
     70 HCP         20.8330    31.0710    76.6470 h1         1 01A       0.050700
     71 HCPA        21.9850    30.9630    77.9810 h1         1 01A       0.050700
     72 HDP         18.6950    29.0430    77.6850 hc         1 01A       0.031867
     73 HDPA        19.3420    29.0430    76.0310 hc         1 01A       0.031867
     74 HDPB        19.4000    27.5740    77.0280 hc         1 01A       0.031867
     75 HEP         21.0790    27.3920    78.9790 hc         1 01A       0.031867
     76 HEPA        22.0160    28.8170    79.4750 hc         1 01A       0.031867
     77 HEPB        20.2590    28.7910    79.6800 hc         1 01A       0.031867
     78 HAP         21.9060    29.1410    75.6710 h1         1 01A       0.081700
     79 HOAP        23.8990    29.2790    76.4190 ho         1 01A       0.461000
     80 HN8P        23.2550    26.6790    77.7090 hn         1 01A       0.335500
     81 H7P         23.1780    24.3350    77.7150 h1         1 01A       0.057700
     82 H7PA        21.8320    24.3740    76.5570 h1         1 01A       0.057700
     83 H6P         23.4090    24.8630    74.7060 hc         1 01A       0.067700
     84 H6PA        24.7750    24.8970    75.8690 hc         1 01A       0.067700
     85 HN4P        25.8050    23.0630    76.3110 hn         1 01A       0.316500
     86 H3P         26.3770    20.8270    76.4870 h1         1 01A       0.062200
     87 H3PA        24.6750    20.3880    76.2430 h1         1 01A       0.062200
     88 H2P         24.9390    20.6810    73.7730 h1         1 01A       0.079200
     89 H2PA        26.6410    21.1420    73.9950 h1         1 01A       0.079200
     90 H1          28.6380    19.5200    74.4710 h1         1 01A       0.081200
     91 H10         27.9830    19.1910    76.0870 h1         1 01A       0.081200
     92 H6          30.2930    15.2090    74.8030 ha         1 01A       0.128500
     93 H5          31.3360    14.3050    72.7500 ha         1 01A       0.123500
     94 H2          28.6010    18.4610    72.4640 ha         1 01A       0.128500
     95 H3          29.6600    17.5350    70.4430 ha         1 01A       0.123500
@<TRIPOS>BOND
     1     1     2 1   
     2     2     3 1   
     3     2     4 1   
     4     2     5 1   
     5     5     6 1   
     6     6     7 1   
     7     6    21 1   
     8     6    59 1   
     9     7     8 1   
    10     7     9 1   
    11     7    60 1   
    12     8    61 1   
    13     9    10 1   
    14     9    20 1   
    15     9    62 1   
    16    10    11 1   
    17    10    19 1   
    18    11    12 ar  
    19    11    17 ar  
    20    12    13 ar  
    21    12    18 1   
    22    13    14 1   
    23    13    15 ar  
    24    14    63 1   
    25    14    64 1   
    26    15    16 ar  
    27    16    17 ar  
    28    16    65 1   
    29    18    19 2   
    30    19    66 1   
    31    20    21 1   
    32    21    22 1   
    33    21    67 1   
    34    22    23 1   
    35    22    68 1   
    36    22    69 1   
    37    23    24 1   
    38    24    25 1   
    39    24    26 1   
    40    24    27 1   
    41    27    28 1   
    42    28    29 1   
    43    28    30 1   
    44    28    31 1   
    45    31    32 1   
    46    32    33 1   
    47    32    70 1   
    48    32    71 1   
    49    33    34 1   
    50    33    35 1   
    51    33    36 1   
    52    34    72 1   
    53    34    73 1   
    54    34    74 1   
    55    35    75 1   
    56    35    76 1   
    57    35    77 1   
    58    36    37 1   
    59    36    38 1   
    60    36    78 1   
    61    37    79 1   
    62    38    39 2   
    63    38    40 1   
    64    40    41 1   
    65    40    80 1   
    66    41    42 1   
    67    41    81 1   
    68    41    82 1   
    69    42    43 1   
    70    42    83 1   
    71    42    84 1   
    72    43    44 2   
    73    43    45 1   
    74    45    46 1   
    75    45    85 1   
    76    46    47 1   
    77    46    86 1   
    78    46    87 1   
    79    47    48 1   
    80    47    88 1   
    81    47    89 1   
    82    48    49 1   
    83    49    50 1   
    84    49    90 1   
    85    49    91 1   
    86    50    51 2   
    87    50    52 1   
    88    52    53 ar  
    89    52    55 ar  
    90    53    54 ar  
    91    53    92 1   
    92    54    57 ar  
    93    54    93 1   
    94    55    56 ar  
    95    55    94 1   
    96    56    57 ar  
    97    56    95 1   
    98    57    58 1   
@<TRIPOS>SUBSTRUCTURE
     1 01A         1 TEMP              0 ****  ****    0 ROOT
