@<TRIPOS>MOLECULE
01B
   26    26     1     0     0
SMALL
No Charge or Current Charge


@<TRIPOS>ATOM
      1 C1           0.6870    -0.0500    -0.0290 c3         1 01B       0.171500
      2 C2           2.0790    -0.3180    -0.6870 c3         1 01B      -0.018700
      3 N2           0.6480    -0.5940     1.3500 n8         1 01B      -1.013200
      4 O2           2.5460    -1.6740    -0.4070 oh         1 01B      -0.713000
      5 C3           3.1240     0.7680    -0.2550 c          1 01B       0.684000
      6 OXT          3.0050     1.9040    -0.6920 o          1 01B      -0.717500
      7 C6          -0.4770    -0.6260    -0.8820 c3         1 01B      -0.031100
      8 C7          -1.8650    -0.2280    -0.3830 ca         1 01B      -0.036300
      9 C8          -2.7170    -1.1840     0.2060 ca         1 01B      -0.103000
     10 C9          -4.0000    -0.8160     0.6500 ca         1 01B      -0.120000
     11 C10         -4.4400     0.5100     0.5060 ca         1 01B      -0.134000
     12 C11         -3.5980     1.4680    -0.0830 ca         1 01B      -0.120000
     13 C12         -2.3160     1.1000    -0.5270 ca         1 01B      -0.103000
     14 O3           4.0770     0.4000     0.4220 o          1 01B      -0.717500
     15 H1           0.5350     1.0380     0.0260 h1         1 01B       0.068700
     16 H2           1.9680    -0.1930    -1.7730 h1         1 01B       0.034700
     17 HN2          1.0550    -1.5350     1.2870 hn         1 01B       0.398500
     18 HN2A         1.3370    -0.0910     1.9190 hn         1 01B       0.398500
     19 HO2          3.4130    -1.5470     0.0530 ho         1 01B       0.473000
     20 H6          -0.3630    -0.2730    -1.9140 hc         1 01B       0.045200
     21 H6A         -0.3840    -1.7180    -0.9310 hc         1 01B       0.045200
     22 H8          -2.3850    -2.2130     0.3210 ha         1 01B       0.111000
     23 H9          -4.6510    -1.5590     1.1050 ha         1 01B       0.095500
     24 H10         -5.4320     0.7950     0.8490 ha         1 01B       0.093000
     25 H11         -3.9380     2.4950    -0.1970 ha         1 01B       0.095500
     26 H12         -1.6720     1.8470    -0.9860 ha         1 01B       0.111000
@<TRIPOS>BOND
     1     1     2 1   
     2     1     3 1   
     3     1     7 1   
     4     1    15 1   
     5     2     4 1   
     6     2     5 1   
     7     2    16 1   
     8     3    17 1   
     9     3    18 1   
    10     4    19 1   
    11     5     6 1   
    12     5    14 1   
    13     7     8 1   
    14     7    20 1   
    15     7    21 1   
    16     8     9 ar  
    17     8    13 ar  
    18     9    10 ar  
    19     9    22 1   
    20    10    11 ar  
    21    10    23 1   
    22    11    12 ar  
    23    11    24 1   
    24    12    13 ar  
    25    12    25 1   
    26    13    26 1   
@<TRIPOS>SUBSTRUCTURE
     1 01B         1 TEMP              0 ****  ****    0 ROOT
