@<TRIPOS>MOLECULE
01B
   26    26     1     0     0
SMALL
bcc


@<TRIPOS>ATOM
      1 C1           0.6630     0.0230    -0.0580 c3         1 01B       0.171500
      2 C2           2.0270    -0.1500    -0.7430 c3         1 01B      -0.041900
      3 N2           0.6000    -0.5160     1.2900 n8         1 01B      -0.902800
      4 O2           2.3480    -1.5100    -0.8970 oh         1 01B      -0.650800
      5 C3           3.1440     0.5470     0.0650 c          1 01B       0.894600
      6 OXT          3.0250     1.7620     0.2870 o          1 01B      -0.822800
      7 C6          -0.4480    -0.6010    -0.9120 c3         1 01B      -0.031100
      8 C7          -1.8210    -0.2420    -0.4260 ca         1 01B      -0.036300
      9 C8          -2.5330    -1.0830     0.4260 ca         1 01B      -0.121000
     10 C9          -3.7940    -0.7300     0.8890 ca         1 01B      -0.138000
     11 C10         -4.3650     0.4780     0.5100 ca         1 01B      -0.152000
     12 C11         -3.6650     1.3280    -0.3370 ca         1 01B      -0.138000
     13 C12         -2.4070     0.9670    -0.7990 ca         1 01B      -0.121000
     14 O3           4.0800    -0.2050     0.4250 o          1 01B      -0.822800
     15 H1           0.4750     1.0990     0.0040 h1         1 01B       0.068700
     16 H2           1.9730     0.3390    -1.7290 h1         1 01B       0.034700
     17 HN2          0.9160    -1.4790     1.2760 hn         1 01B       0.343300
     18 HN2A         1.2400    -0.0170     1.8950 hn         1 01B       0.343300
     19 HO2          3.1770    -1.5810    -0.3880 ho         1 01B       0.434000
     20 H6          -0.3260    -0.2650    -1.9450 hc         1 01B       0.045200
     21 H6A         -0.3260    -1.6880    -0.9210 hc         1 01B       0.045200
     22 H8          -2.0970    -2.0270     0.7270 ha         1 01B       0.129000
     23 H9          -4.3320    -1.4000     1.5480 ha         1 01B       0.113500
     24 H10         -5.3480     0.7530     0.8700 ha         1 01B       0.111000
     25 H11         -4.1010     2.2710    -0.6430 ha         1 01B       0.113500
     26 H12         -1.8700     1.6350    -1.4650 ha         1 01B       0.129000
@<TRIPOS>BOND
     1     1     2 1   
     2     1     3 1   
     3     1     7 1   
     4     1    15 1   
     5     2     4 1   
     6     2     5 1   
     7     2    16 1   
     8     3    17 1   
     9     3    18 1   
    10     4    19 1   
    11     5     6 1   
    12     5    14 1   
    13     7     8 1   
    14     7    20 1   
    15     7    21 1   
    16     8     9 ar  
    17     8    13 ar  
    18     9    10 ar  
    19     9    22 1   
    20    10    11 ar  
    21    10    23 1   
    22    11    12 ar  
    23    11    24 1   
    24    12    13 ar  
    25    12    25 1   
    26    13    26 1   
@<TRIPOS>SUBSTRUCTURE
     1 01B         1 TEMP              0 ****  ****    0 ROOT
