@<TRIPOS>MOLECULE
01C
   32    33     1     0     0
SMALL
bcc


@<TRIPOS>ATOM
      1 N           15.0200    -5.5220    20.7710 n8         1 01C      -0.898800
      2 CA          14.1750    -5.7020    19.6020 c3         1 01C       0.113500
      3 CB          12.7610    -5.1830    19.8690 c3         1 01C       0.015800
      4 CG          12.0630    -5.9690    20.9290 cc         1 01C      -0.134400
      5 CD1         11.3460    -7.1180    20.7420 cd         1 01C      -0.108100
      6 CD2         12.0110    -5.6980    22.3370 ca         1 01C      -0.077800
      7 CE2         11.2470    -6.7270    22.9310 ca         1 01C      -0.048200
      8 NE1         10.8620    -7.5750    21.9350 na         1 01C      -0.171400
      9 CZ2         10.9890    -6.7680    24.3010 ca         1 01C      -0.148000
     10 CH2         11.5080    -5.7520    25.0780 ca         1 01C      -0.109000
     11 CZ3         12.2670    -4.7150    24.5090 ca         1 01C      -0.160000
     12 CE3         12.5250    -4.6820    23.1520 ca         1 01C      -0.070000
     13 C           14.8200    -4.9790    18.4360 c          1 01C       0.486100
     14 O           14.5460    -3.8640    18.0810 o          1 01C      -0.440100
     15 C1          15.9930    -5.6740    17.6990 c3         1 01C       0.246600
     16 F11         16.3830    -6.7900    18.3490 f          1 01C      -0.200800
     17 F12         17.0470    -4.8400    17.6280 f          1 01C      -0.200800
     18 C2          15.6130    -6.0810    16.2630 c3         1 01C       0.635900
     19 F21         16.6080    -6.7390    15.6800 f          1 01C      -0.212633
     20 F22         15.3390    -5.0160    15.5240 f          1 01C      -0.212633
     21 F23         14.5350    -6.8660    16.3000 f          1 01C      -0.212633
     22 HN3         15.9110    -5.9920    20.6950 hn         1 01C       0.364300
     23 H25         14.1130    -6.7710    19.3880 h1         1 01C       0.091700
     24 H261        12.8090    -4.1290    20.1540 hc         1 01C       0.057200
     25 H262        12.1880    -5.2240    18.9390 hc         1 01C       0.057200
     26 H30         11.1400    -7.6520    19.8270 h4         1 01C       0.159000
     27 HN33        10.2970    -8.3990    22.0530 hn         1 01C       0.299700
     28 H34         10.4030    -7.5670    24.7390 ha         1 01C       0.130000
     29 H35         11.3250    -5.7530    26.1450 ha         1 01C       0.127000
     30 H36         12.6580    -3.9340    25.1480 ha         1 01C       0.128000
     31 H37         13.1180    -3.8820    22.7260 ha         1 01C       0.129000
     32 H2          15.1910    -4.5420    20.9570 hn         1 01C       0.364300
@<TRIPOS>BOND
     1     1     2 1   
     2     1    22 1   
     3     1    32 1   
     4     2     3 1   
     5     2    13 1   
     6     2    23 1   
     7     3     4 1   
     8     3    24 1   
     9     3    25 1   
    10     4     5 2   
    11     4     6 1   
    12     5     8 1   
    13     5    26 1   
    14     6     7 ar  
    15     6    12 ar  
    16     7     8 1   
    17     7     9 ar  
    18     8    27 1   
    19     9    10 ar  
    20     9    28 1   
    21    10    11 ar  
    22    10    29 1   
    23    11    12 ar  
    24    11    30 1   
    25    12    31 1   
    26    13    14 2   
    27    13    15 1   
    28    15    16 1   
    29    15    17 1   
    30    15    18 1   
    31    18    19 1   
    32    18    20 1   
    33    18    21 1   
@<TRIPOS>SUBSTRUCTURE
     1 01C         1 TEMP              0 ****  ****    0 ROOT
