@<TRIPOS>MOLECULE
01E
   87    88     1     0     0
SMALL
abcg2


@<TRIPOS>ATOM
      1 CA          -7.6830    -1.7430    -0.3960 c3         1 01E      -0.152400
      2 CB          -8.0740    -3.1310    -0.9500 c3         1 01E      -0.035000
      3 CG1         -8.0840    -4.1880     0.1540 c3         1 01E      -0.087767
      4 CG2         -9.4860    -3.0000    -1.5260 c3         1 01E      -0.087767
      5 CG3         -7.1160    -3.5600    -2.0620 c3         1 01E      -0.087767
      6 C           -6.3290    -1.6760     0.2760 c          1 01E       0.609100
      7 O           -6.1590    -2.0220     1.4360 o          1 01E      -0.608100
      8 N           -5.3270    -1.2110    -0.5020 ns         1 01E      -0.498900
      9 CA1         -3.9810    -0.9910    -0.0370 c3         1 01E       0.041700
     10 CB1         -2.9530    -1.9810    -0.6570 c3         1 01E      -0.049000
     11 CG11        -2.9960    -1.9720    -2.1860 c3         1 01E      -0.088433
     12 CG21        -1.5410    -1.6170    -0.1910 c3         1 01E      -0.088433
     13 CG31        -3.2880    -3.3860    -0.1550 c3         1 01E      -0.088433
     14 C1          -3.6210     0.4660    -0.3080 c          1 01E       0.598100
     15 O1          -3.8820     1.0070    -1.3720 o          1 01E      -0.612100
     16 N1          -3.0010     1.0940     0.7040 ns         1 01E      -0.496900
     17 CA2         -2.4810     2.4420     0.6070 c3         1 01E       0.042700
     18 CB2         -2.6120     3.1630     1.9350 c3         1 01E      -0.165400
     19 CG          -4.0540     3.4010     2.3060 c          1 01E       0.573900
     20 OD1         -4.9810     3.2000     1.5620 o          1 01E      -0.522100
     21 ND2         -4.2770     3.8980     3.5880 n          1 01E       0.014200
     22 CE1         -5.5320     4.1560     4.1080 cc         1 01E      -0.169500
     23 CH1         -5.3740     4.6440     5.3650 cd         1 01E      -0.163500
     24 CE2         -3.3250     4.2350     4.5350 cc         1 01E      -0.169500
     25 CH2         -3.9710     4.6970     5.6360 cd         1 01E      -0.163500
     26 C2          -1.0150     2.3470     0.1700 c          1 01E       0.579100
     27 O2          -0.0970     2.3190     0.9740 o          1 01E      -0.620100
     28 N2          -0.8500     2.2180    -1.1550 ns         1 01E      -0.485900
     29 CA3          0.4270     1.9310    -1.7750 c3         1 01E       0.095700
     30 C3           1.2140     3.2420    -1.9980 c3         1 01E       0.075300
     31 O3           0.5470     4.0970    -2.8730 oh         1 01E      -0.644000
     32 CB3          0.1920     1.1570    -3.0620 c3         1 01E      -0.113100
     33 C11          2.6090     2.9230    -2.5290 c          1 01E       0.568100
     34 O11          2.8850     3.1430    -3.7000 o          1 01E      -0.608100
     35 N21          3.4410     2.3650    -1.6410 ns         1 01E      -0.495900
     36 C31          4.7810     1.9120    -1.9390 c3         1 01E       0.141300
     37 C4           4.9490     0.4330    -1.6990 ca         1 01E      -0.095300
     38 C5           4.0380    -0.4840    -2.2150 ca         1 01E      -0.101000
     39 C6           4.1980    -1.8460    -2.0110 ca         1 01E      -0.079500
     40 C7           5.2890    -2.2970    -1.2800 ca         1 01E       0.200000
     41 I7           5.5400    -4.3610    -0.9600 i          1 01E      -0.309000
     42 C8           6.2120    -1.4050    -0.7570 ca         1 01E      -0.079500
     43 C9           6.0310    -0.0430    -0.9700 ca         1 01E      -0.101000
     44 HA1         -7.7390    -1.0160    -1.2110 hc         1 01E       0.064200
     45 HA2         -8.4240    -1.4430     0.3490 hc         1 01E       0.064200
     46 H11         -8.7260    -3.8890     0.9850 hc         1 01E       0.037033
     47 H12         -8.4640    -5.1350    -0.2360 hc         1 01E       0.037033
     48 H13         -7.0880    -4.3750     0.5540 hc         1 01E       0.037033
     49 H21         -9.5240    -2.2670    -2.3350 hc         1 01E       0.037033
     50 H22         -9.8310    -3.9540    -1.9260 hc         1 01E       0.037033
     51 H23        -10.1960    -2.6850    -0.7570 hc         1 01E       0.037033
     52 H31         -6.1060    -3.7410    -1.6870 hc         1 01E       0.037033
     53 H32         -7.4570    -4.4890    -2.5230 hc         1 01E       0.037033
     54 H33         -7.0480    -2.8060    -2.8490 hc         1 01E       0.037033
     55 H           -5.5550    -0.8820    -1.4270 hn         1 01E       0.329500
     56 HA          -3.9840    -1.1640     1.0410 h1         1 01E       0.088700
     57 HG11        -2.7300    -1.0020    -2.6060 hc         1 01E       0.039367
     58 HG12        -2.2870    -2.7050    -2.5740 hc         1 01E       0.039367
     59 HG13        -3.9820    -2.2450    -2.5670 hc         1 01E       0.039367
     60 HG21        -1.4680    -1.5740     0.8980 hc         1 01E       0.039367
     61 HG22        -0.8310    -2.3710    -0.5360 hc         1 01E       0.039367
     62 HG23        -1.2090    -0.6560    -0.5880 hc         1 01E       0.039367
     63 HG31        -4.2800    -3.7070    -0.4740 hc         1 01E       0.039367
     64 HG32        -2.5700    -4.1050    -0.5540 hc         1 01E       0.039367
     65 HG33        -3.2500    -3.4450     0.9340 hc         1 01E       0.039367
     66 H1          -2.7900     0.5740     1.5430 hn         1 01E       0.326500
     67 HA3         -3.0540     2.9690    -0.1570 h1         1 01E       0.107700
     68 HB2         -2.1020     2.6070     2.7240 hc         1 01E       0.091700
     69 HB3         -2.1090     4.1330     1.8750 hc         1 01E       0.091700
     70 HE1         -6.4240     3.9630     3.5370 h4         1 01E       0.157500
     71 HH1         -6.1710     4.9340     6.0320 ha         1 01E       0.136500
     72 HE2         -2.2710     4.1280     4.3440 h4         1 01E       0.157500
     73 HH2         -3.5000     5.0400     6.5430 ha         1 01E       0.136500
     74 H2          -1.6580     2.2970    -1.7530 hn         1 01E       0.343500
     75 HA4          0.9950     1.3040    -1.0830 h1         1 01E       0.069700
     76 HB1         -0.3680     1.7440    -3.7900 hc         1 01E       0.051367
     77 HB21         1.1310     0.8550    -3.5250 hc         1 01E       0.051367
     78 HB31        -0.3730     0.2470    -2.8590 hc         1 01E       0.051367
     79 HN2          3.1390     2.2930    -0.6810 hn         1 01E       0.327500
     80 H311         4.9950     2.1500    -2.9810 h1         1 01E       0.070200
     81 H321         5.4980     2.4690    -1.3340 h1         1 01E       0.070200
     82 H5           3.1840    -0.1440    -2.7880 ha         1 01E       0.118000
     83 H6           3.4740    -2.5360    -2.4220 ha         1 01E       0.129000
     84 H8           7.0630    -1.7470    -0.1850 ha         1 01E       0.129000
     85 H9           6.7500     0.6510    -0.5510 ha         1 01E       0.118000
     86 H43          1.3120     3.7420    -1.0270 h1         1 01E       0.087700
     87 H44          0.9740     4.0140    -3.7380 ho         1 01E       0.472000
@<TRIPOS>BOND
     1     1     2 1   
     2     1     6 1   
     3     1    44 1   
     4     1    45 1   
     5     2     3 1   
     6     2     4 1   
     7     2     5 1   
     8     3    46 1   
     9     3    47 1   
    10     3    48 1   
    11     4    49 1   
    12     4    50 1   
    13     4    51 1   
    14     5    52 1   
    15     5    53 1   
    16     5    54 1   
    17     6     7 2   
    18     6     8 1   
    19     8     9 1   
    20     8    55 1   
    21     9    10 1   
    22     9    14 1   
    23     9    56 1   
    24    10    11 1   
    25    10    12 1   
    26    10    13 1   
    27    11    57 1   
    28    11    58 1   
    29    11    59 1   
    30    12    60 1   
    31    12    61 1   
    32    12    62 1   
    33    13    63 1   
    34    13    64 1   
    35    13    65 1   
    36    14    15 2   
    37    14    16 1   
    38    16    17 1   
    39    16    66 1   
    40    17    18 1   
    41    17    26 1   
    42    17    67 1   
    43    18    19 1   
    44    18    68 1   
    45    18    69 1   
    46    19    20 2   
    47    19    21 1   
    48    21    22 1   
    49    21    24 1   
    50    22    23 2   
    51    22    70 1   
    52    23    25 1   
    53    23    71 1   
    54    24    25 2   
    55    24    72 1   
    56    25    73 1   
    57    26    27 2   
    58    26    28 1   
    59    28    29 1   
    60    28    74 1   
    61    29    30 1   
    62    29    32 1   
    63    29    75 1   
    64    30    31 1   
    65    30    33 1   
    66    30    86 1   
    67    31    87 1   
    68    32    76 1   
    69    32    77 1   
    70    32    78 1   
    71    33    34 2   
    72    33    35 1   
    73    35    36 1   
    74    35    79 1   
    75    36    37 1   
    76    36    80 1   
    77    36    81 1   
    78    37    38 ar  
    79    37    43 ar  
    80    38    39 ar  
    81    38    82 1   
    82    39    40 ar  
    83    39    83 1   
    84    40    41 1   
    85    40    42 ar  
    86    42    43 ar  
    87    42    84 1   
    88    43    85 1   
@<TRIPOS>SUBSTRUCTURE
     1 01E         1 TEMP              0 ****  ****    0 ROOT
